137349712
  -OEChem-02092604412D

124125  0     1  0  0  0  0  0999 V2000
    6.0010   -6.5000    0.0000 O   0  0  0  0  0  0  0  0  0  0  0  0
    4.2690   -6.5000    0.0000 O   0  0  0  0  0  0  0  0  0  0  0  0
    6.0010   -3.5000    0.0000 O   0  0  0  0  0  0  0  0  0  0  0  0
    4.2690   -9.5000    0.0000 O   0  0  0  0  0  0  0  0  0  0  0  0
    4.2690   -5.5000    0.0000 O   0  0  0  0  0  0  0  0  0  0  0  0
    7.7331   -3.5000    0.0000 O   0  0  0  0  0  0  0  0  0  0  0  0
    7.7331   -5.5000    0.0000 O   0  0  0  0  0  0  0  0  0  0  0  0
    4.2690   -2.5000    0.0000 O   0  0  0  0  0  0  0  0  0  0  0  0
    5.1350  -10.0000    0.0000 O   0  0  0  0  0  0  0  0  0  0  0  0
    8.5991   -1.0000    0.0000 O   0  0  0  0  0  0  0  0  0  0  0  0
   10.3312   -2.0000    0.0000 O   0  0  0  0  0  0  0  0  0  0  0  0
   10.3312   -1.0000    0.0000 O   0  0  0  0  0  0  0  0  0  0  0  0
   11.1972   -3.5000    0.0000 O   0  0  0  0  0  0  0  0  0  0  0  0
    6.0010   -8.5000    0.0000 N   0  0  0  0  0  0  0  0  0  0  0  0
    2.5369   -8.5000    0.0000 N   0  0  0  0  0  0  0  0  0  0  0  0
    5.1350   -8.0000    0.0000 C   0  0  1  0  0  0  0  0  0  0  0  0
    6.0010   -5.5000    0.0000 C   0  0  1  0  0  0  0  0  0  0  0  0
    5.1350   -7.0000    0.0000 C   0  0  2  0  0  0  0  0  0  0  0  0
    4.2690   -8.5000    0.0000 C   0  0  2  0  0  0  0  0  0  0  0  0
    3.4030   -8.0000    0.0000 C   0  0  2  0  0  0  0  0  0  0  0  0
    5.1350   -5.0000    0.0000 C   0  0  1  0  0  0  0  0  0  0  0  0
    3.4030   -7.0000    0.0000 C   0  0  1  0  0  0  0  0  0  0  0  0
    6.8671   -5.0000    0.0000 C   0  0  2  0  0  0  0  0  0  0  0  0
    5.1350   -4.0000    0.0000 C   0  0  1  0  0  0  0  0  0  0  0  0
    6.8671   -4.0000    0.0000 C   0  0  2  0  0  0  0  0  0  0  0  0
    2.5369   -6.5000    0.0000 C   0  0  0  0  0  0  0  0  0  0  0  0
    4.2690   -3.5000    0.0000 C   0  0  0  0  0  0  0  0  0  0  0  0
    6.0010   -9.5000    0.0000 C   0  0  0  0  0  0  0  0  0  0  0  0
    7.7331   -2.5000    0.0000 C   0  0  0  0  0  0  0  0  0  0  0  0
    8.5991   -2.0000    0.0000 C   0  0  1  0  0  0  0  0  0  0  0  0
    6.8671  -10.0000    0.0000 C   0  0  0  0  0  0  0  0  0  0  0  0
    9.4651   -2.5000    0.0000 C   0  0  0  0  0  0  0  0  0  0  0  0
    9.4651   -0.5000    0.0000 C   0  0  0  0  0  0  0  0  0  0  0  0
    9.4651    0.5000    0.0000 C   0  0  0  0  0  0  0  0  0  0  0  0
   10.3312    1.0000    0.0000 C   0  0  0  0  0  0  0  0  0  0  0  0
   11.1972   -2.5000    0.0000 C   0  0  0  0  0  0  0  0  0  0  0  0
   10.3312    2.0000    0.0000 C   0  0  0  0  0  0  0  0  0  0  0  0
   12.0632   -2.0000    0.0000 C   0  0  0  0  0  0  0  0  0  0  0  0
   11.1972    2.5000    0.0000 C   0  0  0  0  0  0  0  0  0  0  0  0
   12.9292   -2.5000    0.0000 C   0  0  0  0  0  0  0  0  0  0  0  0
   13.7953   -2.0000    0.0000 C   0  0  0  0  0  0  0  0  0  0  0  0
   11.1972    3.5000    0.0000 C   0  0  0  0  0  0  0  0  0  0  0  0
   14.6613   -2.5000    0.0000 C   0  0  0  0  0  0  0  0  0  0  0  0
   13.7953    7.0000    0.0000 C   0  0  0  0  0  0  0  0  0  0  0  0
   12.9292    6.5000    0.0000 C   0  0  0  0  0  0  0  0  0  0  0  0
   13.7953    8.0000    0.0000 C   0  0  0  0  0  0  0  0  0  0  0  0
   12.0632    4.0000    0.0000 C   0  0  0  0  0  0  0  0  0  0  0  0
   12.9292    5.5000    0.0000 C   0  0  0  0  0  0  0  0  0  0  0  0
   14.6613    8.5000    0.0000 C   0  0  0  0  0  0  0  0  0  0  0  0
   15.5273   -2.0000    0.0000 C   0  0  0  0  0  0  0  0  0  0  0  0
   12.0632    5.0000    0.0000 C   0  0  0  0  0  0  0  0  0  0  0  0
   14.6613    9.5000    0.0000 C   0  0  0  0  0  0  0  0  0  0  0  0
   16.3933   -2.5000    0.0000 C   0  0  0  0  0  0  0  0  0  0  0  0
   15.5273   10.0000    0.0000 C   0  0  0  0  0  0  0  0  0  0  0  0
    5.6720   -7.6900    0.0000 H   0  0  0  0  0  0  0  0  0  0  0  0
    5.4641   -5.8100    0.0000 H   0  0  0  0  0  0  0  0  0  0  0  0
    5.1350   -6.3800    0.0000 H   0  0  0  0  0  0  0  0  0  0  0  0
    4.8059   -8.8100    0.0000 H   0  0  0  0  0  0  0  0  0  0  0  0
    3.4030   -8.6200    0.0000 H   0  0  0  0  0  0  0  0  0  0  0  0
    4.5981   -4.6900    0.0000 H   0  0  0  0  0  0  0  0  0  0  0  0
    3.4030   -6.3800    0.0000 H   0  0  0  0  0  0  0  0  0  0  0  0
    6.8671   -5.6200    0.0000 H   0  0  0  0  0  0  0  0  0  0  0  0
    5.1350   -3.3800    0.0000 H   0  0  0  0  0  0  0  0  0  0  0  0
    7.4040   -4.3100    0.0000 H   0  0  0  0  0  0  0  0  0  0  0  0
    6.5380   -8.1900    0.0000 H   0  0  0  0  0  0  0  0  0  0  0  0
    2.8469   -5.9631    0.0000 H   0  0  0  0  0  0  0  0  0  0  0  0
    2.0000   -6.1900    0.0000 H   0  0  0  0  0  0  0  0  0  0  0  0
    2.2269   -7.0369    0.0000 H   0  0  0  0  0  0  0  0  0  0  0  0
    3.6584   -3.3923    0.0000 H   0  0  0  0  0  0  0  0  0  0  0  0
    4.0569   -4.0826    0.0000 H   0  0  0  0  0  0  0  0  0  0  0  0
    2.0000   -8.1900    0.0000 H   0  0  0  0  0  0  0  0  0  0  0  0
    2.5369   -9.1200    0.0000 H   0  0  0  0  0  0  0  0  0  0  0  0
    3.7321   -9.8100    0.0000 H   0  0  0  0  0  0  0  0  0  0  0  0
    3.7321   -5.1900    0.0000 H   0  0  0  0  0  0  0  0  0  0  0  0
    8.2700   -5.1900    0.0000 H   0  0  0  0  0  0  0  0  0  0  0  0
    7.5210   -1.9174    0.0000 H   0  0  0  0  0  0  0  0  0  0  0  0
    7.1225   -2.6077    0.0000 H   0  0  0  0  0  0  0  0  0  0  0  0
    8.0622   -1.6900    0.0000 H   0  0  0  0  0  0  0  0  0  0  0  0
    3.7321   -2.1900    0.0000 H   0  0  0  0  0  0  0  0  0  0  0  0
    6.5571  -10.5369    0.0000 H   0  0  0  0  0  0  0  0  0  0  0  0
    7.4040  -10.3100    0.0000 H   0  0  0  0  0  0  0  0  0  0  0  0
    7.1771   -9.4631    0.0000 H   0  0  0  0  0  0  0  0  0  0  0  0
    9.0666   -2.9750    0.0000 H   0  0  0  0  0  0  0  0  0  0  0  0
    9.8637   -2.9750    0.0000 H   0  0  0  0  0  0  0  0  0  0  0  0
    9.2531    1.0826    0.0000 H   0  0  0  0  0  0  0  0  0  0  0  0
    8.8546    0.3923    0.0000 H   0  0  0  0  0  0  0  0  0  0  0  0
   10.5432    0.4174    0.0000 H   0  0  0  0  0  0  0  0  0  0  0  0
   10.9417    1.1077    0.0000 H   0  0  0  0  0  0  0  0  0  0  0  0
   10.1191    2.5826    0.0000 H   0  0  0  0  0  0  0  0  0  0  0  0
    9.7206    1.8923    0.0000 H   0  0  0  0  0  0  0  0  0  0  0  0
   12.4617   -1.5251    0.0000 H   0  0  0  0  0  0  0  0  0  0  0  0
   11.6647   -1.5251    0.0000 H   0  0  0  0  0  0  0  0  0  0  0  0
   11.4092    1.9174    0.0000 H   0  0  0  0  0  0  0  0  0  0  0  0
   11.8078    2.6077    0.0000 H   0  0  0  0  0  0  0  0  0  0  0  0
   12.5307   -2.9750    0.0000 H   0  0  0  0  0  0  0  0  0  0  0  0
   13.3278   -2.9750    0.0000 H   0  0  0  0  0  0  0  0  0  0  0  0
   14.1938   -1.5251    0.0000 H   0  0  0  0  0  0  0  0  0  0  0  0
   13.3967   -1.5251    0.0000 H   0  0  0  0  0  0  0  0  0  0  0  0
   10.9851    4.0826    0.0000 H   0  0  0  0  0  0  0  0  0  0  0  0
   10.5866    3.3923    0.0000 H   0  0  0  0  0  0  0  0  0  0  0  0
   14.2628   -2.9750    0.0000 H   0  0  0  0  0  0  0  0  0  0  0  0
   15.0598   -2.9750    0.0000 H   0  0  0  0  0  0  0  0  0  0  0  0
   14.0073    6.4174    0.0000 H   0  0  0  0  0  0  0  0  0  0  0  0
   14.4058    7.1077    0.0000 H   0  0  0  0  0  0  0  0  0  0  0  0
   12.7172    7.0826    0.0000 H   0  0  0  0  0  0  0  0  0  0  0  0
   12.3187    6.3923    0.0000 H   0  0  0  0  0  0  0  0  0  0  0  0
   13.5832    8.5826    0.0000 H   0  0  0  0  0  0  0  0  0  0  0  0
   13.1847    7.8923    0.0000 H   0  0  0  0  0  0  0  0  0  0  0  0
   13.1413    4.9174    0.0000 H   0  0  0  0  0  0  0  0  0  0  0  0
   13.5398    5.6077    0.0000 H   0  0  0  0  0  0  0  0  0  0  0  0
   12.6002    3.6900    0.0000 H   0  0  0  0  0  0  0  0  0  0  0  0
   14.8733    7.9174    0.0000 H   0  0  0  0  0  0  0  0  0  0  0  0
   15.2719    8.6077    0.0000 H   0  0  0  0  0  0  0  0  0  0  0  0
   15.9258   -1.5251    0.0000 H   0  0  0  0  0  0  0  0  0  0  0  0
   15.1288   -1.5251    0.0000 H   0  0  0  0  0  0  0  0  0  0  0  0
   11.5263    5.3100    0.0000 H   0  0  0  0  0  0  0  0  0  0  0  0
   14.4492   10.0826    0.0000 H   0  0  0  0  0  0  0  0  0  0  0  0
   14.0507    9.3923    0.0000 H   0  0  0  0  0  0  0  0  0  0  0  0
   16.0833   -3.0369    0.0000 H   0  0  0  0  0  0  0  0  0  0  0  0
   16.9303   -2.8100    0.0000 H   0  0  0  0  0  0  0  0  0  0  0  0
   16.7033   -1.9631    0.0000 H   0  0  0  0  0  0  0  0  0  0  0  0
   15.8373    9.4631    0.0000 H   0  0  0  0  0  0  0  0  0  0  0  0
   16.0643   10.3100    0.0000 H   0  0  0  0  0  0  0  0  0  0  0  0
   15.2173   10.5369    0.0000 H   0  0  0  0  0  0  0  0  0  0  0  0
 17  1  1  1  0  0  0
 18  1  1  1  0  0  0
  2 18  1  0  0  0  0
  2 22  1  0  0  0  0
  3 24  1  0  0  0  0
  3 25  1  0  0  0  0
 19  4  1  1  0  0  0
  4 73  1  0  0  0  0
 21  5  1  6  0  0  0
  5 74  1  0  0  0  0
 25  6  1  6  0  0  0
  6 29  1  0  0  0  0
 23  7  1  6  0  0  0
  7 75  1  0  0  0  0
  8 27  1  0  0  0  0
  8 79  1  0  0  0  0
  9 28  2  0  0  0  0
 30 10  1  6  0  0  0
 10 33  1  0  0  0  0
 11 32  1  0  0  0  0
 11 36  1  0  0  0  0
 12 33  2  0  0  0  0
 13 36  2  0  0  0  0
 16 14  1  6  0  0  0
 14 28  1  0  0  0  0
 14 65  1  0  0  0  0
 20 15  1  1  0  0  0
 15 71  1  0  0  0  0
 15 72  1  0  0  0  0
 16 18  1  0  0  0  0
 16 19  1  0  0  0  0
 16 55  1  0  0  0  0
 17 21  1  0  0  0  0
 17 23  1  0  0  0  0
 17 56  1  0  0  0  0
 18 57  1  0  0  0  0
 19 20  1  0  0  0  0
 19 58  1  0  0  0  0
 20 22  1  0  0  0  0
 20 59  1  0  0  0  0
 21 24  1  0  0  0  0
 21 60  1  0  0  0  0
 22 26  1  1  0  0  0
 22 61  1  0  0  0  0
 23 25  1  0  0  0  0
 23 62  1  0  0  0  0
 24 27  1  1  0  0  0
 24 63  1  0  0  0  0
 25 64  1  0  0  0  0
 26 66  1  0  0  0  0
 26 67  1  0  0  0  0
 26 68  1  0  0  0  0
 27 69  1  0  0  0  0
 27 70  1  0  0  0  0
 28 31  1  0  0  0  0
 29 30  1  0  0  0  0
 29 76  1  0  0  0  0
 29 77  1  0  0  0  0
 30 32  1  0  0  0  0
 30 78  1  0  0  0  0
 31 80  1  0  0  0  0
 31 81  1  0  0  0  0
 31 82  1  0  0  0  0
 32 83  1  0  0  0  0
 32 84  1  0  0  0  0
 33 34  1  0  0  0  0
 34 35  1  0  0  0  0
 34 85  1  0  0  0  0
 34 86  1  0  0  0  0
 35 37  1  0  0  0  0
 35 87  1  0  0  0  0
 35 88  1  0  0  0  0
 36 38  1  0  0  0  0
 37 39  1  0  0  0  0
 37 89  1  0  0  0  0
 37 90  1  0  0  0  0
 38 40  1  0  0  0  0
 38 91  1  0  0  0  0
 38 92  1  0  0  0  0
 39 42  1  0  0  0  0
 39 93  1  0  0  0  0
 39 94  1  0  0  0  0
 40 41  1  0  0  0  0
 40 95  1  0  0  0  0
 40 96  1  0  0  0  0
 41 43  1  0  0  0  0
 41 97  1  0  0  0  0
 41 98  1  0  0  0  0
 42 47  1  0  0  0  0
 42 99  1  0  0  0  0
 42100  1  0  0  0  0
 43 50  1  0  0  0  0
 43101  1  0  0  0  0
 43102  1  0  0  0  0
 44 45  1  0  0  0  0
 44 46  1  0  0  0  0
 44103  1  0  0  0  0
 44104  1  0  0  0  0
 45 48  1  0  0  0  0
 45105  1  0  0  0  0
 45106  1  0  0  0  0
 46 49  1  0  0  0  0
 46107  1  0  0  0  0
 46108  1  0  0  0  0
 47 51  2  0  0  0  0
 47111  1  0  0  0  0
 48 51  1  0  0  0  0
 48109  1  0  0  0  0
 48110  1  0  0  0  0
 49 52  1  0  0  0  0
 49112  1  0  0  0  0
 49113  1  0  0  0  0
 50 53  1  0  0  0  0
 50114  1  0  0  0  0
 50115  1  0  0  0  0
 51116  1  0  0  0  0
 52 54  1  0  0  0  0
 52117  1  0  0  0  0
 52118  1  0  0  0  0
 53119  1  0  0  0  0
 53120  1  0  0  0  0
 53121  1  0  0  0  0
 54122  1  0  0  0  0
 54123  1  0  0  0  0
 54124  1  0  0  0  0
M  END
> <PUBCHEM_COMPOUND_CID>
137349712

> <PUBCHEM_COMPOUND_CANONICALIZED>
1

> <PUBCHEM_CACTVS_COMPLEXITY>
1080

> <PUBCHEM_CACTVS_HBOND_ACCEPTOR>
14

> <PUBCHEM_CACTVS_HBOND_DONOR>
6

> <PUBCHEM_CACTVS_ROTATABLE_BOND>
29

> <PUBCHEM_CACTVS_SUBSKEYS>
AAADcfB/PAAAAAAAAAAAAAAAAAAAAAAAAAAkSAAAAAAAAAAAAAAAHgAQCAAACDzxgAcCCALABgCIACHSGAAAAAAgAAAICIEIAAgTEBIAwQAnQAAFlgCfAAP46KyAAAAAAAAAAAAAAAAAAAAAAAAAAAAAAA==

> <PUBCHEM_IUPAC_OPENEYE_NAME>
[(1S)-1-[[(2S,3R,4S,5R,6R)-4-[(2S,3R,4S,5R,6R)-3-acetamido-5-amino-4-hydroxy-6-methyl-tetrahydropyran-2-yl]oxy-3,5-dihydroxy-6-(hydroxymethyl)tetrahydropyran-2-yl]oxymethyl]-2-heptanoyloxy-ethyl] (E)-pentadec-7-enoate

> <PUBCHEM_IUPAC_CAS_NAME>
(E)-7-pentadecenoic acid [(2S)-1-[[(2S,3R,4S,5R,6R)-4-[[(2S,3R,4S,5R,6R)-3-acetamido-5-amino-4-hydroxy-6-methyl-2-oxanyl]oxy]-3,5-dihydroxy-6-(hydroxymethyl)-2-oxanyl]oxy]-3-(1-oxoheptoxy)propan-2-yl] ester

> <PUBCHEM_IUPAC_NAME_MARKUP>
[(2<I>S</I>)-1-[(2<I>S</I>,3<I>R</I>,4<I>S</I>,5<I>R</I>,6<I>R</I>)-4-[(2<I>S</I>,3<I>R</I>,4<I>S</I>,5<I>R</I>,6<I>R</I>)-3-acetamido-5-amino-4-hydroxy-6-methyloxan-2-yl]oxy-3,5-dihydroxy-6-(hydroxymethyl)oxan-2-yl]oxy-3-heptanoyloxypropan-2-yl] (<I>E</I>)-pentadec-7-enoate

> <PUBCHEM_IUPAC_NAME>
[(2S)-1-[(2S,3R,4S,5R,6R)-4-[(2S,3R,4S,5R,6R)-3-acetamido-5-amino-4-hydroxy-6-methyloxan-2-yl]oxy-3,5-dihydroxy-6-(hydroxymethyl)oxan-2-yl]oxy-3-heptanoyloxypropan-2-yl] (E)-pentadec-7-enoate

> <PUBCHEM_IUPAC_SYSTEMATIC_NAME>
[(2S)-1-[(2S,3R,4S,5R,6R)-4-[(2S,3R,4S,5R,6R)-3-acetamido-5-azanyl-6-methyl-4-oxidanyl-oxan-2-yl]oxy-6-(hydroxymethyl)-3,5-bis(oxidanyl)oxan-2-yl]oxy-3-heptanoyloxy-propan-2-yl] (E)-pentadec-7-enoate

> <PUBCHEM_IUPAC_TRADITIONAL_NAME>
(E)-pentadec-7-enoic acid [(1S)-1-[[(2S,3R,4S,5R,6R)-4-[(2S,3R,4S,5R,6R)-3-acetamido-5-amino-4-hydroxy-6-methyl-tetrahydropyran-2-yl]oxy-3,5-dihydroxy-6-methylol-tetrahydropyran-2-yl]oxymethyl]-2-enanthyloxy-ethyl] ester

> <PUBCHEM_IUPAC_INCHI>
InChI=1S/C39H70N2O13/c1-5-7-9-11-12-13-14-15-16-17-18-20-22-31(45)52-28(24-49-30(44)21-19-10-8-6-2)25-50-39-36(48)37(34(46)29(23-42)53-39)54-38-33(41-27(4)43)35(47)32(40)26(3)51-38/h14-15,26,28-29,32-39,42,46-48H,5-13,16-25,40H2,1-4H3,(H,41,43)/b15-14+/t26-,28-,29-,32+,33-,34-,35+,36-,37+,38+,39+/m1/s1

> <PUBCHEM_IUPAC_INCHIKEY>
PANDRCFROUDETH-YLSOAJEOSA-N

> <PUBCHEM_XLOGP3_AA>
4.7

> <PUBCHEM_EXACT_MASS>
774.48779029

> <PUBCHEM_MOLECULAR_FORMULA>
C39H70N2O13

> <PUBCHEM_MOLECULAR_WEIGHT>
775.0

> <PUBCHEM_SMILES>
CCCCCCC/C=C/CCCCCC(=O)O[C@@H](CO[C@@H]1[C@@H]([C@H]([C@@H]([C@H](O1)CO)O)O[C@H]2[C@@H]([C@H]([C@H]([C@H](O2)C)N)O)NC(=O)C)O)COC(=O)CCCCCC

> <PUBCHEM_CONNECTIVITY_SMILES>
CCCCCCCC=CCCCCCC(=O)OC(COC1C(C(C(C(O1)CO)O)OC2C(C(C(C(O2)C)N)O)NC(=O)C)O)COC(=O)CCCCCC

> <PUBCHEM_CACTVS_TPSA>
226

> <PUBCHEM_MONOISOTOPIC_WEIGHT>
774.48779029

> <PUBCHEM_TOTAL_CHARGE>
0

> <PUBCHEM_HEAVY_ATOM_COUNT>
54

> <PUBCHEM_ATOM_DEF_STEREO_COUNT>
11

> <PUBCHEM_ATOM_UDEF_STEREO_COUNT>
0

> <PUBCHEM_BOND_DEF_STEREO_COUNT>
1

> <PUBCHEM_BOND_UDEF_STEREO_COUNT>
0

> <PUBCHEM_ISOTOPIC_ATOM_COUNT>
0

> <PUBCHEM_COMPONENT_COUNT>
1

> <PUBCHEM_CACTVS_TAUTO_COUNT>
-1

> <PUBCHEM_COORDINATE_TYPE>
1
5
255

> <PUBCHEM_BONDANNOTATIONS>
17  1  5
18  1  5
30  10  6
16  14  6
20  15  5
22  26  5
24  27  5
19  4  5
21  5  6
25  6  6
23  7  6

$$$$
