
     RDKit          3D

119120  0  0  0  0  0  0  0  0999 V2000
    1.0000   -1.8791    4.6650 C   0  0  0  0  0  0  0  0  0  0  0  0
   -0.5220   -1.7807    4.5826 C   0  0  0  0  0  0  0  0  0  0  0  0
   -1.0766   -2.1624    3.2013 C   0  0  0  0  0  0  0  0  0  0  0  0
   -0.8061   -3.6348    2.8402 C   0  0  0  0  0  0  0  0  0  0  0  0
   -1.7390   -4.1529    1.7381 C   0  0  0  0  0  0  0  0  0  0  0  0
   -1.5055   -3.4659    0.4248 C   0  0  0  0  0  0  0  0  0  0  0  0
   -0.5941   -3.8850   -0.3383 O   0  0  0  0  0  0  0  0  0  0  0  0
   -2.3094   -2.3379    0.0501 N   0  0  0  0  0  0  0  0  0  0  0  0
   -2.2368   -1.7042   -1.2707 C   0  0  2  0  0  0  0  0  0  0  0  0
   -1.4433   -0.4040   -1.2244 C   0  0  2  0  0  0  0  0  0  0  0  0
   -0.4408   -0.4206   -0.2213 O   0  0  0  0  0  0  0  0  0  0  0  0
    0.8621   -0.4471   -0.7776 C   0  0  1  0  0  0  0  0  0  0  0  0
    1.8812   -0.0027    0.3140 C   0  0  1  0  0  0  0  0  0  0  0  0
    1.2329    0.8384    1.3302 N   0  0  0  0  0  0  0  0  0  0  0  0
    0.6884    2.1272    1.0124 C   0  0  0  0  0  0  0  0  0  0  0  0
    0.9191    2.6493   -0.1133 O   0  0  0  0  0  0  0  0  0  0  0  0
   -0.2348    2.8017    1.9893 C   0  0  0  0  0  0  0  0  0  0  0  0
   -0.3675    4.3096    1.7341 C   0  0  0  0  0  0  0  0  0  0  0  0
   -1.3500    4.9482    2.7261 C   0  0  0  0  0  0  0  0  0  0  0  0
   -1.4533    6.4714    2.5563 C   0  0  0  0  0  0  0  0  0  0  0  0
   -2.1659    6.8758    1.2656 C   0  0  0  0  0  0  0  0  0  0  0  0
    2.5404   -1.2319    0.9475 C   0  0  2  0  0  0  0  0  0  0  0  0
    3.4592   -0.8159    1.9257 O   0  0  0  0  0  0  0  0  0  0  0  0
    3.2659   -2.0486   -0.1426 C   0  0  1  0  0  0  0  0  0  0  0  0
    3.4380   -3.3936    0.3103 O   0  0  0  0  0  0  0  0  0  0  0  0
    4.5205   -3.8289    1.0823 C   0  0  0  0  0  0  0  0  0  0  0  0
    5.4587   -3.0427    1.3863 O   0  0  0  0  0  0  0  0  0  0  0  0
    4.5916   -5.2655    1.4959 C   0  0  0  0  0  0  0  0  0  0  0  0
    5.4262   -6.0974    0.5130 C   0  0  0  0  0  0  0  0  0  0  0  0
    4.7402   -6.2416   -0.8573 C   0  0  0  0  0  0  0  0  0  0  0  0
    5.5853   -7.0451   -1.8574 C   0  0  0  0  0  0  0  0  0  0  0  0
    5.6324   -8.5371   -1.5286 C   0  0  0  0  0  0  0  0  0  0  0  0
    2.4648   -2.0687   -1.4770 C   0  0  2  0  0  0  0  0  0  0  0  0
    3.1005   -1.2199   -2.5968 C   0  0  0  0  0  0  0  0  0  0  0  0
    4.3283   -1.7976   -2.9762 O   0  0  0  0  0  0  0  0  0  0  0  0
    5.0337   -0.8166   -4.1786 P   0  0  0  0  0  0  0  0  0  0  0  0
    6.3313   -1.4471   -4.6291 O   0  0  0  0  0  0  0  0  0  0  0  0
    5.3525    0.7261   -3.5585 O   0  0  0  0  0  0  0  0  0  0  0  0
    3.9947   -0.6856   -5.5077 O   0  0  0  0  0  0  0  0  0  0  0  0
    1.0949   -1.7582   -1.2833 O   0  0  0  0  0  0  0  0  0  0  0  0
   -2.5070    0.5949   -0.8770 C   0  0  1  0  0  0  0  0  0  0  0  0
   -2.1864    1.8743   -1.4223 O   0  0  0  0  0  0  0  0  0  0  0  0
   -2.7540    3.0676   -0.9652 C   0  0  0  0  0  0  0  0  0  0  0  0
   -3.3578    3.1155    0.1409 O   0  0  0  0  0  0  0  0  0  0  0  0
   -2.6739    4.2906   -1.8235 C   0  0  0  0  0  0  0  0  0  0  0  0
   -3.5295    4.1300   -3.0870 C   0  0  0  0  0  0  0  0  0  0  0  0
   -5.0344    4.1115   -2.7653 C   0  0  0  0  0  0  0  0  0  0  0  0
   -5.9001    3.8827   -4.0130 C   0  0  0  0  0  0  0  0  0  0  0  0
   -5.8714    2.4292   -4.4879 C   0  0  0  0  0  0  0  0  0  0  0  0
   -3.7410   -0.0096   -1.5504 C   0  0  2  0  0  0  0  0  0  0  0  0
   -5.0239    0.2502   -0.7569 C   0  0  0  0  0  0  0  0  0  0  0  0
   -6.1207   -0.2583   -1.4784 O   0  0  0  0  0  0  0  0  0  0  0  0
   -7.5484    0.1666   -0.6498 P   0  0  0  0  0  0  0  0  0  0  0  0
   -8.7336   -0.4307   -1.3730 O   0  0  0  0  0  0  0  0  0  0  0  0
   -7.7161    1.8508   -0.6054 O   0  0  0  0  0  0  0  0  0  0  0  0
   -7.5061   -0.4366    0.9306 O   0  0  0  0  0  0  0  0  0  0  0  0
   -3.5455   -1.4021   -1.7037 O   0  0  0  0  0  0  0  0  0  0  0  0
    1.4693   -1.2323    3.8988 H   0  0  0  0  0  0  0  0  0  0  0  0
    1.3372   -2.9269    4.5230 H   0  0  0  0  0  0  0  0  0  0  0  0
    1.3378   -1.5379    5.6660 H   0  0  0  0  0  0  0  0  0  0  0  0
   -0.9751   -2.4302    5.3628 H   0  0  0  0  0  0  0  0  0  0  0  0
   -0.8189   -0.7327    4.8044 H   0  0  0  0  0  0  0  0  0  0  0  0
   -2.1735   -1.9814    3.2218 H   0  0  0  0  0  0  0  0  0  0  0  0
   -0.6409   -1.4982    2.4240 H   0  0  0  0  0  0  0  0  0  0  0  0
    0.2512   -3.7564    2.5177 H   0  0  0  0  0  0  0  0  0  0  0  0
   -0.9620   -4.2709    3.7388 H   0  0  0  0  0  0  0  0  0  0  0  0
   -1.5649   -5.2430    1.6070 H   0  0  0  0  0  0  0  0  0  0  0  0
   -2.7992   -4.0289    2.0483 H   0  0  0  0  0  0  0  0  0  0  0  0
   -2.9585   -1.9289    0.7598 H   0  0  0  0  0  0  0  0  0  0  0  0
   -1.7721   -2.3972   -2.0055 H   0  0  0  0  0  0  0  0  0  0  0  0
   -1.0695   -0.1865   -2.2561 H   0  0  0  0  0  0  0  0  0  0  0  0
    0.9477    0.2938   -1.6075 H   0  0  0  0  0  0  0  0  0  0  0  0
    2.6882    0.6013   -0.1579 H   0  0  0  0  0  0  0  0  0  0  0  0
    1.0990    0.4711    2.2986 H   0  0  0  0  0  0  0  0  0  0  0  0
   -1.2331    2.3201    1.9109 H   0  0  0  0  0  0  0  0  0  0  0  0
    0.1494    2.6382    3.0195 H   0  0  0  0  0  0  0  0  0  0  0  0
    0.6312    4.7880    1.8381 H   0  0  0  0  0  0  0  0  0  0  0  0
   -0.7337    4.4711    0.6986 H   0  0  0  0  0  0  0  0  0  0  0  0
   -2.3567    4.4894    2.6112 H   0  0  0  0  0  0  0  0  0  0  0  0
   -1.0010    4.7399    3.7612 H   0  0  0  0  0  0  0  0  0  0  0  0
   -0.4406    6.9292    2.5824 H   0  0  0  0  0  0  0  0  0  0  0  0
   -2.0293    6.8808    3.4143 H   0  0  0  0  0  0  0  0  0  0  0  0
   -2.3352    7.9731    1.2663 H   0  0  0  0  0  0  0  0  0  0  0  0
   -3.1501    6.3668    1.1873 H   0  0  0  0  0  0  0  0  0  0  0  0
   -1.5467    6.6247    0.3798 H   0  0  0  0  0  0  0  0  0  0  0  0
    1.7390   -1.8579    1.4093 H   0  0  0  0  0  0  0  0  0  0  0  0
    3.5387   -1.5564    2.5814 H   0  0  0  0  0  0  0  0  0  0  0  0
    4.2647   -1.5940   -0.3344 H   0  0  0  0  0  0  0  0  0  0  0  0
    5.0530   -5.3273    2.5054 H   0  0  0  0  0  0  0  0  0  0  0  0
    3.5645   -5.6837    1.5726 H   0  0  0  0  0  0  0  0  0  0  0  0
    6.4291   -5.6325    0.3890 H   0  0  0  0  0  0  0  0  0  0  0  0
    5.5701   -7.1031    0.9608 H   0  0  0  0  0  0  0  0  0  0  0  0
    4.5780   -5.2316   -1.2914 H   0  0  0  0  0  0  0  0  0  0  0  0
    3.7436   -6.7198   -0.7355 H   0  0  0  0  0  0  0  0  0  0  0  0
    6.6193   -6.6390   -1.8988 H   0  0  0  0  0  0  0  0  0  0  0  0
    5.1381   -6.9271   -2.8684 H   0  0  0  0  0  0  0  0  0  0  0  0
    4.6047   -8.9469   -1.4312 H   0  0  0  0  0  0  0  0  0  0  0  0
    6.1514   -9.0784   -2.3476 H   0  0  0  0  0  0  0  0  0  0  0  0
    6.1935   -8.7163   -0.5885 H   0  0  0  0  0  0  0  0  0  0  0  0
    2.4841   -3.1132   -1.8612 H   0  0  0  0  0  0  0  0  0  0  0  0
    3.2501   -0.1787   -2.2388 H   0  0  0  0  0  0  0  0  0  0  0  0
    2.3973   -1.2112   -3.4603 H   0  0  0  0  0  0  0  0  0  0  0  0
    5.8687    0.5630   -2.7291 H   0  0  0  0  0  0  0  0  0  0  0  0
   -2.6230    0.6475    0.2313 H   0  0  0  0  0  0  0  0  0  0  0  0
   -3.0009    5.1873   -1.2535 H   0  0  0  0  0  0  0  0  0  0  0  0
   -1.6141    4.4445   -2.1186 H   0  0  0  0  0  0  0  0  0  0  0  0
   -3.3171    4.9827   -3.7679 H   0  0  0  0  0  0  0  0  0  0  0  0
   -3.2295    3.1977   -3.6112 H   0  0  0  0  0  0  0  0  0  0  0  0
   -5.2642    3.3292   -2.0118 H   0  0  0  0  0  0  0  0  0  0  0  0
   -5.3124    5.0922   -2.3211 H   0  0  0  0  0  0  0  0  0  0  0  0
   -6.9514    4.1435   -3.7631 H   0  0  0  0  0  0  0  0  0  0  0  0
   -5.5735    4.5534   -4.8372 H   0  0  0  0  0  0  0  0  0  0  0  0
   -6.5936    2.2998   -5.3213 H   0  0  0  0  0  0  0  0  0  0  0  0
   -6.1598    1.7436   -3.6631 H   0  0  0  0  0  0  0  0  0  0  0  0
   -4.8633    2.1532   -4.8591 H   0  0  0  0  0  0  0  0  0  0  0  0
   -3.8574    0.4345   -2.5652 H   0  0  0  0  0  0  0  0  0  0  0  0
   -4.9426   -0.2542    0.2327 H   0  0  0  0  0  0  0  0  0  0  0  0
   -5.1259    1.3468   -0.6074 H   0  0  0  0  0  0  0  0  0  0  0  0
   -7.6717    2.1347   -1.5533 H   0  0  0  0  0  0  0  0  0  0  0  0
  1  2  1  0
  2  3  1  0
  3  4  1  0
  4  5  1  0
  5  6  1  0
  6  7  2  0
  6  8  1  0
  8  9  1  0
  9 10  1  0
 10 11  1  0
 11 12  1  0
 12 13  1  0
 13 14  1  0
 14 15  1  0
 15 16  2  0
 15 17  1  0
 17 18  1  0
 18 19  1  0
 19 20  1  0
 20 21  1  0
 13 22  1  0
 22 23  1  0
 22 24  1  0
 24 25  1  0
 25 26  1  0
 26 27  2  0
 26 28  1  0
 28 29  1  0
 29 30  1  0
 30 31  1  0
 31 32  1  0
 24 33  1  0
 33 34  1  0
 34 35  1  0
 35 36  1  0
 36 37  2  0
 36 38  1  0
 36 39  1  0
 33 40  1  0
 10 41  1  0
 41 42  1  0
 42 43  1  0
 43 44  2  0
 43 45  1  0
 45 46  1  0
 46 47  1  0
 47 48  1  0
 48 49  1  0
 41 50  1  0
 50 51  1  0
 51 52  1  0
 52 53  1  0
 53 54  2  0
 53 55  1  0
 53 56  1  0
 50 57  1  0
 57  9  1  0
 40 12  1  0
  1 58  1  0
  1 59  1  0
  1 60  1  0
  2 61  1  0
  2 62  1  0
  3 63  1  0
  3 64  1  0
  4 65  1  0
  4 66  1  0
  5 67  1  0
  5 68  1  0
  8 69  1  0
  9 70  1  6
 10 71  1  6
 12 72  1  6
 13 73  1  6
 14 74  1  0
 17 75  1  0
 17 76  1  0
 18 77  1  0
 18 78  1  0
 19 79  1  0
 19 80  1  0
 20 81  1  0
 20 82  1  0
 21 83  1  0
 21 84  1  0
 21 85  1  0
 22 86  1  1
 23 87  1  0
 24 88  1  6
 28 89  1  0
 28 90  1  0
 29 91  1  0
 29 92  1  0
 30 93  1  0
 30 94  1  0
 31 95  1  0
 31 96  1  0
 32 97  1  0
 32 98  1  0
 32 99  1  0
 33100  1  6
 34101  1  0
 34102  1  0
 38103  1  0
 41104  1  1
 45105  1  0
 45106  1  0
 46107  1  0
 46108  1  0
 47109  1  0
 47110  1  0
 48111  1  0
 48112  1  0
 49113  1  0
 49114  1  0
 49115  1  0
 50116  1  6
 51117  1  0
 51118  1  0
 55119  1  0
M  CHG  2  39  -1  56  -1
M  END

> <NAME>
Representative of E. coli O111:B4 Lipid A (truncated proxy)

> <FORMULA>
C35H62N2O18P2-2

> <EXACT_MASS>
860.3484

> <NET_CHARGE>
-2

> <IONIZATION_STATE>
Phosphates mono-deprotonated (PO4^-); Physiological pH model

> <STRUCTURE_DESCRIPTION>
Bis-phosphorylated beta(1->6)-D-glucosamine disaccharide with 2 amide-linked and 2 ester-linked hexanoyl (C6) chains

