
 OpenBabel03062610533D

 35 34  0  0  1  0  0  0  0  0999 V2000
   -7.9201   -2.3467    0.0600 O   0  0  0  0  0  0  0  0  0  0  0  0
   -6.1901   -2.3467    0.0600 P   0  0  0  0  0  0  0  0  0  0  0  0
   -6.1901   -3.2548    1.3271 O   0  0  0  0  0  0  0  0  0  0  0  0
   -6.1673   -3.6493   -1.1086 O   0  0  0  0  0  0  0  0  0  0  0  0
   -4.4601   -2.3467    0.0600 O   0  0  0  0  0  0  0  0  0  0  0  0
   -3.9388   -1.4994    1.0665 C   0  0  0  0  0  0  0  0  0  0  0  0
   -2.6509   -0.8246    0.5410 C   0  0  2  0  0  0  0  0  0  0  0  0
   -1.7581   -1.7761    0.0143 O   0  0  0  0  0  0  0  0  0  0  0  0
   -1.9394    0.0419    1.6026 C   0  0  0  0  0  0  0  0  0  0  0  0
   -1.4429   -0.7804    2.6316 O   0  0  0  0  0  0  0  0  0  0  0  0
   -0.8442    0.2206    3.9394 P   0  0  1  0  0  0  0  0  0  0  0  0
   -2.0796    0.8254    4.6581 O   0  0  0  0  0  0  0  0  0  0  0  0
   -0.0562   -0.7723    5.1298 O   0  0  0  0  0  0  0  0  0  0  0  0
    0.1598    1.5709    3.4233 O   0  0  0  0  0  0  0  0  0  0  0  0
    1.5216    1.3261    3.7187 C   0  0  0  0  0  0  0  0  0  0  0  0
    1.9716    2.0121    5.0306 C   0  0  2  0  0  0  0  0  0  0  0  0
    1.2997    1.4712    6.1390 O   0  0  0  0  0  0  0  0  0  0  0  0
    1.8259    3.5449    5.0040 C   0  0  0  0  0  0  0  0  0  0  0  0
    2.6072    4.0873    3.9760 O   0  0  0  0  0  0  0  0  0  0  0  0
   -8.2335   -3.2880    0.0846 H   0  0  0  0  0  0  0  0  0  0  0  0
   -6.0067   -4.4992   -0.6233 H   0  0  0  0  0  0  0  0  0  0  0  0
   -3.7016   -2.1206    1.9569 H   0  0  0  0  0  0  0  0  0  0  0  0
   -4.6437   -0.6908    1.3705 H   0  0  0  0  0  0  0  0  0  0  0  0
   -2.9573   -0.1587   -0.2952 H   0  0  0  0  0  0  0  0  0  0  0  0
   -1.5841   -2.4547    0.7178 H   0  0  0  0  0  0  0  0  0  0  0  0
   -2.6686    0.7890    1.9895 H   0  0  0  0  0  0  0  0  0  0  0  0
   -1.0901    0.5644    1.1079 H   0  0  0  0  0  0  0  0  0  0  0  0
   -0.6124   -1.5893    5.1857 H   0  0  0  0  0  0  0  0  0  0  0  0
    2.1255    1.7315    2.8794 H   0  0  0  0  0  0  0  0  0  0  0  0
    1.7756    0.2429    3.7409 H   0  0  0  0  0  0  0  0  0  0  0  0
    3.0542    1.7950    5.1675 H   0  0  0  0  0  0  0  0  0  0  0  0
    0.3698    1.8191    6.1335 H   0  0  0  0  0  0  0  0  0  0  0  0
    0.7602    3.8266    4.8561 H   0  0  0  0  0  0  0  0  0  0  0  0
    2.1782    3.9389    5.9859 H   0  0  0  0  0  0  0  0  0  0  0  0
    2.6214    5.0684    4.1277 H   0  0  0  0  0  0  0  0  0  0  0  0
  1  2  1  0  0  0  0
  1 20  1  0  0  0  0
  2  3  2  0  0  0  0
  2  4  1  0  0  0  0
  2  5  1  0  0  0  0
  4 21  1  0  0  0  0
  5  6  1  0  0  0  0
  6  7  1  0  0  0  0
  6 22  1  0  0  0  0
  6 23  1  0  0  0  0
  7  8  1  0  0  0  0
  7  9  1  0  0  0  0
  7 24  1  6  0  0  0
  8 25  1  0  0  0  0
  9 10  1  0  0  0  0
  9 26  1  0  0  0  0
  9 27  1  0  0  0  0
 10 11  1  0  0  0  0
 11 12  2  1  0  0  0
 11 13  1  0  0  0  0
 11 14  1  0  0  0  0
 13 28  1  0  0  0  0
 14 15  1  0  0  0  0
 15 16  1  0  0  0  0
 15 29  1  0  0  0  0
 15 30  1  0  0  0  0
 16 17  1  0  0  0  0
 16 18  1  0  0  0  0
 16 31  1  1  0  0  0
 17 32  1  0  0  0  0
 18 19  1  0  0  0  0
 18 33  1  0  0  0  0
 18 34  1  0  0  0  0
 19 35  1  0  0  0  0
M  END
