9877306
  -OEChem-02092604542D

301302  0     1  0  0  0  0  0999 V2000
   10.6603   -0.5000    0.0000 P   0  0  0  0  0  0  0  0  0  0  0  0
   18.4545    1.0000    0.0000 P   0  0  0  0  0  0  0  0  0  0  0  0
   13.2583    1.0000    0.0000 O   0  0  0  0  0  0  0  0  0  0  0  0
   14.9904    1.0000    0.0000 O   0  0  0  0  0  0  0  0  0  0  0  0
   16.7224    2.0000    0.0000 O   0  0  0  0  0  0  0  0  0  0  0  0
   13.2583   -2.0000    0.0000 O   0  0  0  0  0  0  0  0  0  0  0  0
   11.5263   -1.0000    0.0000 O   0  0  0  0  0  0  0  0  0  0  0  0
   16.7224    5.0000    0.0000 O   0  0  0  0  0  0  0  0  0  0  0  0
   14.9904    4.0000    0.0000 O   0  0  0  0  0  0  0  0  0  0  0  0
   18.4545    2.0000    0.0000 O   0  0  0  0  0  0  0  0  0  0  0  0
   11.5263    2.0000    0.0000 O   0  0  0  0  0  0  0  0  0  0  0  0
   15.8564    0.5000    0.0000 O   0  0  0  0  0  0  0  0  0  0  0  0
    9.7942   -0.0000    0.0000 O   0  0  0  0  0  0  0  0  0  0  0  0
   10.1603   -1.3660    0.0000 O   0  0  0  0  0  0  0  0  0  0  0  0
   17.5885   -2.5000    0.0000 O   0  0  0  0  0  0  0  0  0  0  0  0
   11.5263   -2.0000    0.0000 O   0  0  0  0  0  0  0  0  0  0  0  0
   17.5885    5.5000    0.0000 O   0  0  0  0  0  0  0  0  0  0  0  0
   11.1603    0.3660    0.0000 O   0  0  0  0  0  0  0  0  0  0  0  0
   11.5263   -5.0000    0.0000 O   0  0  0  0  0  0  0  0  0  0  0  0
   14.9904    5.0000    0.0000 O   0  0  0  0  0  0  0  0  0  0  0  0
   19.4545    1.0000    0.0000 O   0  0  0  0  0  0  0  0  0  0  0  0
   18.4545    0.0000    0.0000 O   0  0  0  0  0  0  0  0  0  0  0  0
   17.4545    1.0000    0.0000 O   0  0  0  0  0  0  0  0  0  0  0  0
   18.4545    7.0000    0.0000 O   0  0  0  0  0  0  0  0  0  0  0  0
   14.1244    6.5000    0.0000 O   0  0  0  0  0  0  0  0  0  0  0  0
   16.7224   -4.0000    0.0000 O   0  0  0  0  0  0  0  0  0  0  0  0
    9.7942   -5.0000    0.0000 O   0  0  0  0  0  0  0  0  0  0  0  0
   14.9904   -1.0000    0.0000 N   0  0  0  0  0  0  0  0  0  0  0  0
   18.4545    4.0000    0.0000 N   0  0  0  0  0  0  0  0  0  0  0  0
   14.1244   -0.5000    0.0000 C   0  0  2  0  0  0  0  0  0  0  0  0
   13.2583   -1.0000    0.0000 C   0  0  2  0  0  0  0  0  0  0  0  0
   12.3923   -0.5000    0.0000 C   0  0  1  0  0  0  0  0  0  0  0  0
   14.1244    0.5000    0.0000 C   0  0  1  0  0  0  0  0  0  0  0  0
   15.8564    2.5000    0.0000 C   0  0  1  0  0  0  0  0  0  0  0  0
   12.3923    0.5000    0.0000 C   0  0  1  0  0  0  0  0  0  0  0  0
   15.8564    3.5000    0.0000 C   0  0  2  0  0  0  0  0  0  0  0  0
   16.7224    4.0000    0.0000 C   0  0  1  0  0  0  0  0  0  0  0  0
   17.5885    3.5000    0.0000 C   0  0  2  0  0  0  0  0  0  0  0  0
   17.5885    2.5000    0.0000 C   0  0  2  0  0  0  0  0  0  0  0  0
   14.9904    2.0000    0.0000 C   0  0  0  0  0  0  0  0  0  0  0  0
   11.5263    1.0000    0.0000 C   0  0  0  0  0  0  0  0  0  0  0  0
   15.8564   -0.5000    0.0000 C   0  0  0  0  0  0  0  0  0  0  0  0
   12.3923   -2.5000    0.0000 C   0  0  0  0  0  0  0  0  0  0  0  0
   16.7224   -1.0000    0.0000 C   0  0  0  0  0  0  0  0  0  0  0  0
   18.4545    5.0000    0.0000 C   0  0  0  0  0  0  0  0  0  0  0  0
   15.8564    5.5000    0.0000 C   0  0  0  0  0  0  0  0  0  0  0  0
   16.7224   -2.0000    0.0000 C   0  0  1  0  0  0  0  0  0  0  0  0
   12.3923   -3.5000    0.0000 C   0  0  0  0  0  0  0  0  0  0  0  0
   19.3205    5.5000    0.0000 C   0  0  0  0  0  0  0  0  0  0  0  0
   11.5263   -4.0000    0.0000 C   0  0  1  0  0  0  0  0  0  0  0  0
   15.8564    6.5000    0.0000 C   0  0  0  0  0  0  0  0  0  0  0  0
   15.8564   -2.5000    0.0000 C   0  0  0  0  0  0  0  0  0  0  0  0
   19.3205    6.5000    0.0000 C   0  0  1  0  0  0  0  0  0  0  0  0
   14.9904    7.0000    0.0000 C   0  0  1  0  0  0  0  0  0  0  0  0
   10.6603   -3.5000    0.0000 C   0  0  0  0  0  0  0  0  0  0  0  0
   15.8564   -3.5000    0.0000 C   0  0  0  0  0  0  0  0  0  0  0  0
   20.1865    7.0000    0.0000 C   0  0  0  0  0  0  0  0  0  0  0  0
   14.9904    8.0000    0.0000 C   0  0  0  0  0  0  0  0  0  0  0  0
    9.7942   -4.0000    0.0000 C   0  0  0  0  0  0  0  0  0  0  0  0
   14.9904   -4.0000    0.0000 C   0  0  0  0  0  0  0  0  0  0  0  0
   20.1865    8.0000    0.0000 C   0  0  0  0  0  0  0  0  0  0  0  0
   14.1244    8.5000    0.0000 C   0  0  0  0  0  0  0  0  0  0  0  0
    8.9282   -3.5000    0.0000 C   0  0  0  0  0  0  0  0  0  0  0  0
   14.9904   -5.0000    0.0000 C   0  0  0  0  0  0  0  0  0  0  0  0
   21.0526    8.5000    0.0000 C   0  0  0  0  0  0  0  0  0  0  0  0
   14.1244    9.5000    0.0000 C   0  0  0  0  0  0  0  0  0  0  0  0
    8.0622   -4.0000    0.0000 C   0  0  0  0  0  0  0  0  0  0  0  0
   17.5885   -3.5000    0.0000 C   0  0  0  0  0  0  0  0  0  0  0  0
   14.1244   -5.5000    0.0000 C   0  0  0  0  0  0  0  0  0  0  0  0
   21.0526    9.5000    0.0000 C   0  0  0  0  0  0  0  0  0  0  0  0
   10.6603   -5.5000    0.0000 C   0  0  0  0  0  0  0  0  0  0  0  0
   13.2583   10.0000    0.0000 C   0  0  0  0  0  0  0  0  0  0  0  0
    7.1962   -3.5000    0.0000 C   0  0  0  0  0  0  0  0  0  0  0  0
   18.4545   -4.0000    0.0000 C   0  0  0  0  0  0  0  0  0  0  0  0
   14.1244   -6.5000    0.0000 C   0  0  0  0  0  0  0  0  0  0  0  0
   21.9186   10.0000    0.0000 C   0  0  0  0  0  0  0  0  0  0  0  0
   10.6603   -6.5000    0.0000 C   0  0  0  0  0  0  0  0  0  0  0  0
   13.2583   11.0000    0.0000 C   0  0  0  0  0  0  0  0  0  0  0  0
   18.4545   -5.0000    0.0000 C   0  0  0  0  0  0  0  0  0  0  0  0
    6.3301   -4.0000    0.0000 C   0  0  0  0  0  0  0  0  0  0  0  0
   21.9186   11.0000    0.0000 C   0  0  0  0  0  0  0  0  0  0  0  0
   14.9904   -7.0000    0.0000 C   0  0  0  0  0  0  0  0  0  0  0  0
    9.7942   -7.0000    0.0000 C   0  0  0  0  0  0  0  0  0  0  0  0
   12.3923   11.5000    0.0000 C   0  0  0  0  0  0  0  0  0  0  0  0
   19.3205   -5.5000    0.0000 C   0  0  0  0  0  0  0  0  0  0  0  0
    5.4641   -3.5000    0.0000 C   0  0  0  0  0  0  0  0  0  0  0  0
   22.7846   11.5000    0.0000 C   0  0  0  0  0  0  0  0  0  0  0  0
   14.9904   -8.0000    0.0000 C   0  0  0  0  0  0  0  0  0  0  0  0
    9.7942   -8.0000    0.0000 C   0  0  0  0  0  0  0  0  0  0  0  0
   12.3923   12.5000    0.0000 C   0  0  0  0  0  0  0  0  0  0  0  0
   19.3205   -6.5000    0.0000 C   0  0  0  0  0  0  0  0  0  0  0  0
    4.5981   -4.0000    0.0000 C   0  0  0  0  0  0  0  0  0  0  0  0
   22.7846   12.5000    0.0000 C   0  0  0  0  0  0  0  0  0  0  0  0
    8.9282   -8.5000    0.0000 C   0  0  0  0  0  0  0  0  0  0  0  0
   15.8564   -8.5000    0.0000 C   0  0  0  0  0  0  0  0  0  0  0  0
   20.1865   -7.0000    0.0000 C   0  0  0  0  0  0  0  0  0  0  0  0
   11.5263   13.0000    0.0000 C   0  0  0  0  0  0  0  0  0  0  0  0
    3.7321   -3.5000    0.0000 C   0  0  0  0  0  0  0  0  0  0  0  0
    8.9282   -9.5000    0.0000 C   0  0  0  0  0  0  0  0  0  0  0  0
   23.6506   13.0000    0.0000 C   0  0  0  0  0  0  0  0  0  0  0  0
   20.1865   -8.0000    0.0000 C   0  0  0  0  0  0  0  0  0  0  0  0
   15.8564   -9.5000    0.0000 C   0  0  0  0  0  0  0  0  0  0  0  0
   11.5263   14.0000    0.0000 C   0  0  0  0  0  0  0  0  0  0  0  0
    8.0622  -10.0000    0.0000 C   0  0  0  0  0  0  0  0  0  0  0  0
    2.8660   -4.0000    0.0000 C   0  0  0  0  0  0  0  0  0  0  0  0
   21.0526   -8.5000    0.0000 C   0  0  0  0  0  0  0  0  0  0  0  0
   23.6506   14.0000    0.0000 C   0  0  0  0  0  0  0  0  0  0  0  0
    8.0622  -11.0000    0.0000 C   0  0  0  0  0  0  0  0  0  0  0  0
   10.6603   14.5000    0.0000 C   0  0  0  0  0  0  0  0  0  0  0  0
   21.0526   -9.5000    0.0000 C   0  0  0  0  0  0  0  0  0  0  0  0
   16.7224  -10.0000    0.0000 C   0  0  0  0  0  0  0  0  0  0  0  0
    7.1962  -11.5000    0.0000 C   0  0  0  0  0  0  0  0  0  0  0  0
    2.0000   -3.5000    0.0000 C   0  0  0  0  0  0  0  0  0  0  0  0
   24.5167   14.5000    0.0000 C   0  0  0  0  0  0  0  0  0  0  0  0
   21.9186  -10.0000    0.0000 C   0  0  0  0  0  0  0  0  0  0  0  0
    7.1962  -12.5000    0.0000 C   0  0  0  0  0  0  0  0  0  0  0  0
   10.6603   15.5000    0.0000 C   0  0  0  0  0  0  0  0  0  0  0  0
    6.3301  -13.0000    0.0000 C   0  0  0  0  0  0  0  0  0  0  0  0
   21.9186  -11.0000    0.0000 C   0  0  0  0  0  0  0  0  0  0  0  0
    6.3301  -14.0000    0.0000 C   0  0  0  0  0  0  0  0  0  0  0  0
   22.7846  -11.5000    0.0000 C   0  0  0  0  0  0  0  0  0  0  0  0
    5.4641  -14.5000    0.0000 C   0  0  0  0  0  0  0  0  0  0  0  0
    5.4641  -15.5000    0.0000 C   0  0  0  0  0  0  0  0  0  0  0  0
   14.1244   -1.1200    0.0000 H   0  0  0  0  0  0  0  0  0  0  0  0
   12.7214   -1.3100    0.0000 H   0  0  0  0  0  0  0  0  0  0  0  0
   11.8554   -0.1900    0.0000 H   0  0  0  0  0  0  0  0  0  0  0  0
   14.1244    1.1200    0.0000 H   0  0  0  0  0  0  0  0  0  0  0  0
   15.8564    1.8800    0.0000 H   0  0  0  0  0  0  0  0  0  0  0  0
   12.3923    1.1200    0.0000 H   0  0  0  0  0  0  0  0  0  0  0  0
   15.3195    3.1900    0.0000 H   0  0  0  0  0  0  0  0  0  0  0  0
   16.1855    4.3100    0.0000 H   0  0  0  0  0  0  0  0  0  0  0  0
   17.5885    4.1200    0.0000 H   0  0  0  0  0  0  0  0  0  0  0  0
   17.5885    1.8800    0.0000 H   0  0  0  0  0  0  0  0  0  0  0  0
   14.7783    2.5826    0.0000 H   0  0  0  0  0  0  0  0  0  0  0  0
   14.3798    1.8923    0.0000 H   0  0  0  0  0  0  0  0  0  0  0  0
   14.9904   -1.6200    0.0000 H   0  0  0  0  0  0  0  0  0  0  0  0
   10.9157    1.1077    0.0000 H   0  0  0  0  0  0  0  0  0  0  0  0
   11.3142    0.4174    0.0000 H   0  0  0  0  0  0  0  0  0  0  0  0
   18.9914    3.6900    0.0000 H   0  0  0  0  0  0  0  0  0  0  0  0
   14.4534    3.6900    0.0000 H   0  0  0  0  0  0  0  0  0  0  0  0
   17.3330   -1.1077    0.0000 H   0  0  0  0  0  0  0  0  0  0  0  0
   16.9345   -0.4174    0.0000 H   0  0  0  0  0  0  0  0  0  0  0  0
   16.7224   -2.6200    0.0000 H   0  0  0  0  0  0  0  0  0  0  0  0
   12.6044   -4.0826    0.0000 H   0  0  0  0  0  0  0  0  0  0  0  0
   13.0029   -3.3923    0.0000 H   0  0  0  0  0  0  0  0  0  0  0  0
   19.5326    4.9174    0.0000 H   0  0  0  0  0  0  0  0  0  0  0  0
   19.9311    5.6077    0.0000 H   0  0  0  0  0  0  0  0  0  0  0  0
   10.9893    2.3100    0.0000 H   0  0  0  0  0  0  0  0  0  0  0  0
   12.0632   -4.3100    0.0000 H   0  0  0  0  0  0  0  0  0  0  0  0
   16.4670    6.3923    0.0000 H   0  0  0  0  0  0  0  0  0  0  0  0
   16.0685    7.0826    0.0000 H   0  0  0  0  0  0  0  0  0  0  0  0
   15.6444   -1.9174    0.0000 H   0  0  0  0  0  0  0  0  0  0  0  0
   15.2458   -2.6077    0.0000 H   0  0  0  0  0  0  0  0  0  0  0  0
   18.7836    6.1900    0.0000 H   0  0  0  0  0  0  0  0  0  0  0  0
   14.9904    6.3800    0.0000 H   0  0  0  0  0  0  0  0  0  0  0  0
   11.0588   -3.0251    0.0000 H   0  0  0  0  0  0  0  0  0  0  0  0
   10.2617   -3.0251    0.0000 H   0  0  0  0  0  0  0  0  0  0  0  0
   16.0685   -4.0826    0.0000 H   0  0  0  0  0  0  0  0  0  0  0  0
   16.4670   -3.3923    0.0000 H   0  0  0  0  0  0  0  0  0  0  0  0
   20.3986    6.4174    0.0000 H   0  0  0  0  0  0  0  0  0  0  0  0
   20.7971    7.1077    0.0000 H   0  0  0  0  0  0  0  0  0  0  0  0
   15.6010    7.8923    0.0000 H   0  0  0  0  0  0  0  0  0  0  0  0
   15.2024    8.5826    0.0000 H   0  0  0  0  0  0  0  0  0  0  0  0
    9.2573   -0.3100    0.0000 H   0  0  0  0  0  0  0  0  0  0  0  0
    9.5403   -1.3660    0.0000 H   0  0  0  0  0  0  0  0  0  0  0  0
    9.3957   -4.4750    0.0000 H   0  0  0  0  0  0  0  0  0  0  0  0
   10.1928   -4.4750    0.0000 H   0  0  0  0  0  0  0  0  0  0  0  0
   14.7783   -3.4174    0.0000 H   0  0  0  0  0  0  0  0  0  0  0  0
   14.3798   -4.1077    0.0000 H   0  0  0  0  0  0  0  0  0  0  0  0
   19.9745    8.5826    0.0000 H   0  0  0  0  0  0  0  0  0  0  0  0
   19.5760    7.8923    0.0000 H   0  0  0  0  0  0  0  0  0  0  0  0
   13.5138    8.6077    0.0000 H   0  0  0  0  0  0  0  0  0  0  0  0
   13.9123    7.9174    0.0000 H   0  0  0  0  0  0  0  0  0  0  0  0
   19.7645    0.4631    0.0000 H   0  0  0  0  0  0  0  0  0  0  0  0
   18.9914   -0.3100    0.0000 H   0  0  0  0  0  0  0  0  0  0  0  0
    9.3267   -3.0251    0.0000 H   0  0  0  0  0  0  0  0  0  0  0  0
    8.5297   -3.0251    0.0000 H   0  0  0  0  0  0  0  0  0  0  0  0
   15.2024   -5.5826    0.0000 H   0  0  0  0  0  0  0  0  0  0  0  0
   15.6010   -4.8923    0.0000 H   0  0  0  0  0  0  0  0  0  0  0  0
   21.2646    7.9174    0.0000 H   0  0  0  0  0  0  0  0  0  0  0  0
   21.6631    8.6077    0.0000 H   0  0  0  0  0  0  0  0  0  0  0  0
   18.4545    7.6200    0.0000 H   0  0  0  0  0  0  0  0  0  0  0  0
   14.7349    9.3923    0.0000 H   0  0  0  0  0  0  0  0  0  0  0  0
   14.3364   10.0826    0.0000 H   0  0  0  0  0  0  0  0  0  0  0  0
    7.6637   -4.4750    0.0000 H   0  0  0  0  0  0  0  0  0  0  0  0
    8.4607   -4.4750    0.0000 H   0  0  0  0  0  0  0  0  0  0  0  0
   13.5874    6.8100    0.0000 H   0  0  0  0  0  0  0  0  0  0  0  0
   13.9123   -4.9174    0.0000 H   0  0  0  0  0  0  0  0  0  0  0  0
   13.5138   -5.6077    0.0000 H   0  0  0  0  0  0  0  0  0  0  0  0
   20.8405   10.0826    0.0000 H   0  0  0  0  0  0  0  0  0  0  0  0
   20.4420    9.3923    0.0000 H   0  0  0  0  0  0  0  0  0  0  0  0
   12.6477   10.1077    0.0000 H   0  0  0  0  0  0  0  0  0  0  0  0
   13.0463    9.4174    0.0000 H   0  0  0  0  0  0  0  0  0  0  0  0
    7.5947   -3.0251    0.0000 H   0  0  0  0  0  0  0  0  0  0  0  0
    6.7976   -3.0251    0.0000 H   0  0  0  0  0  0  0  0  0  0  0  0
   19.0651   -4.1077    0.0000 H   0  0  0  0  0  0  0  0  0  0  0  0
   18.6665   -3.4174    0.0000 H   0  0  0  0  0  0  0  0  0  0  0  0
   13.5138   -6.3923    0.0000 H   0  0  0  0  0  0  0  0  0  0  0  0
   13.9123   -7.0826    0.0000 H   0  0  0  0  0  0  0  0  0  0  0  0
   22.1306    9.4174    0.0000 H   0  0  0  0  0  0  0  0  0  0  0  0
   22.5292   10.1077    0.0000 H   0  0  0  0  0  0  0  0  0  0  0  0
   10.8723   -7.0826    0.0000 H   0  0  0  0  0  0  0  0  0  0  0  0
   11.2708   -6.3923    0.0000 H   0  0  0  0  0  0  0  0  0  0  0  0
   13.8689   10.8923    0.0000 H   0  0  0  0  0  0  0  0  0  0  0  0
   13.4704   11.5826    0.0000 H   0  0  0  0  0  0  0  0  0  0  0  0
   17.8439   -4.8923    0.0000 H   0  0  0  0  0  0  0  0  0  0  0  0
   18.2424   -5.5826    0.0000 H   0  0  0  0  0  0  0  0  0  0  0  0
    5.9316   -4.4750    0.0000 H   0  0  0  0  0  0  0  0  0  0  0  0
    6.7287   -4.4750    0.0000 H   0  0  0  0  0  0  0  0  0  0  0  0
   21.7065   11.5826    0.0000 H   0  0  0  0  0  0  0  0  0  0  0  0
   21.3080   10.8923    0.0000 H   0  0  0  0  0  0  0  0  0  0  0  0
   15.6010   -7.1077    0.0000 H   0  0  0  0  0  0  0  0  0  0  0  0
   15.2024   -6.4174    0.0000 H   0  0  0  0  0  0  0  0  0  0  0  0
    9.5822   -6.4174    0.0000 H   0  0  0  0  0  0  0  0  0  0  0  0
    9.1837   -7.1077    0.0000 H   0  0  0  0  0  0  0  0  0  0  0  0
   11.7817   11.6077    0.0000 H   0  0  0  0  0  0  0  0  0  0  0  0
   12.1803   10.9174    0.0000 H   0  0  0  0  0  0  0  0  0  0  0  0
   19.9311   -5.6077    0.0000 H   0  0  0  0  0  0  0  0  0  0  0  0
   19.5326   -4.9174    0.0000 H   0  0  0  0  0  0  0  0  0  0  0  0
    5.8626   -3.0251    0.0000 H   0  0  0  0  0  0  0  0  0  0  0  0
    5.0656   -3.0251    0.0000 H   0  0  0  0  0  0  0  0  0  0  0  0
   22.9967   10.9174    0.0000 H   0  0  0  0  0  0  0  0  0  0  0  0
   23.3952   11.6077    0.0000 H   0  0  0  0  0  0  0  0  0  0  0  0
   14.3798   -7.8923    0.0000 H   0  0  0  0  0  0  0  0  0  0  0  0
   14.7783   -8.5826    0.0000 H   0  0  0  0  0  0  0  0  0  0  0  0
   10.0063   -8.5826    0.0000 H   0  0  0  0  0  0  0  0  0  0  0  0
   10.4048   -7.8923    0.0000 H   0  0  0  0  0  0  0  0  0  0  0  0
   13.0029   12.3923    0.0000 H   0  0  0  0  0  0  0  0  0  0  0  0
   12.6044   13.0826    0.0000 H   0  0  0  0  0  0  0  0  0  0  0  0
   18.7099   -6.3923    0.0000 H   0  0  0  0  0  0  0  0  0  0  0  0
   19.1085   -7.0826    0.0000 H   0  0  0  0  0  0  0  0  0  0  0  0
    4.1996   -4.4750    0.0000 H   0  0  0  0  0  0  0  0  0  0  0  0
    4.9966   -4.4750    0.0000 H   0  0  0  0  0  0  0  0  0  0  0  0
   22.5726   13.0826    0.0000 H   0  0  0  0  0  0  0  0  0  0  0  0
   22.1740   12.3923    0.0000 H   0  0  0  0  0  0  0  0  0  0  0  0
    8.7162   -7.9174    0.0000 H   0  0  0  0  0  0  0  0  0  0  0  0
    8.3176   -8.6077    0.0000 H   0  0  0  0  0  0  0  0  0  0  0  0
   16.4670   -8.6077    0.0000 H   0  0  0  0  0  0  0  0  0  0  0  0
   16.0685   -7.9174    0.0000 H   0  0  0  0  0  0  0  0  0  0  0  0
   20.7971   -7.1077    0.0000 H   0  0  0  0  0  0  0  0  0  0  0  0
   20.3986   -6.4174    0.0000 H   0  0  0  0  0  0  0  0  0  0  0  0
   10.9157   13.1077    0.0000 H   0  0  0  0  0  0  0  0  0  0  0  0
   11.3142   12.4174    0.0000 H   0  0  0  0  0  0  0  0  0  0  0  0
    4.1306   -3.0251    0.0000 H   0  0  0  0  0  0  0  0  0  0  0  0
    3.3335   -3.0251    0.0000 H   0  0  0  0  0  0  0  0  0  0  0  0
    9.1403  -10.0826    0.0000 H   0  0  0  0  0  0  0  0  0  0  0  0
    9.5388   -9.3923    0.0000 H   0  0  0  0  0  0  0  0  0  0  0  0
   23.8627   12.4174    0.0000 H   0  0  0  0  0  0  0  0  0  0  0  0
   24.2612   13.1077    0.0000 H   0  0  0  0  0  0  0  0  0  0  0  0
   19.5760   -7.8923    0.0000 H   0  0  0  0  0  0  0  0  0  0  0  0
   19.9745   -8.5826    0.0000 H   0  0  0  0  0  0  0  0  0  0  0  0
   15.2458   -9.3923    0.0000 H   0  0  0  0  0  0  0  0  0  0  0  0
   15.6444  -10.0826    0.0000 H   0  0  0  0  0  0  0  0  0  0  0  0
   12.1369   13.8923    0.0000 H   0  0  0  0  0  0  0  0  0  0  0  0
   11.7383   14.5826    0.0000 H   0  0  0  0  0  0  0  0  0  0  0  0
    7.8501   -9.4174    0.0000 H   0  0  0  0  0  0  0  0  0  0  0  0
    7.4516  -10.1077    0.0000 H   0  0  0  0  0  0  0  0  0  0  0  0
    2.4675   -4.4750    0.0000 H   0  0  0  0  0  0  0  0  0  0  0  0
    3.2646   -4.4750    0.0000 H   0  0  0  0  0  0  0  0  0  0  0  0
   21.6631   -8.6077    0.0000 H   0  0  0  0  0  0  0  0  0  0  0  0
   21.2646   -7.9174    0.0000 H   0  0  0  0  0  0  0  0  0  0  0  0
   23.4386   14.5826    0.0000 H   0  0  0  0  0  0  0  0  0  0  0  0
   23.0401   13.8923    0.0000 H   0  0  0  0  0  0  0  0  0  0  0  0
    8.2742  -11.5826    0.0000 H   0  0  0  0  0  0  0  0  0  0  0  0
    8.6728  -10.8923    0.0000 H   0  0  0  0  0  0  0  0  0  0  0  0
   10.0497   14.6077    0.0000 H   0  0  0  0  0  0  0  0  0  0  0  0
   10.4482   13.9174    0.0000 H   0  0  0  0  0  0  0  0  0  0  0  0
   20.4420   -9.3923    0.0000 H   0  0  0  0  0  0  0  0  0  0  0  0
   20.8405  -10.0826    0.0000 H   0  0  0  0  0  0  0  0  0  0  0  0
   16.4124  -10.5369    0.0000 H   0  0  0  0  0  0  0  0  0  0  0  0
   17.2594  -10.3100    0.0000 H   0  0  0  0  0  0  0  0  0  0  0  0
   17.0324   -9.4631    0.0000 H   0  0  0  0  0  0  0  0  0  0  0  0
    6.9841  -10.9174    0.0000 H   0  0  0  0  0  0  0  0  0  0  0  0
    6.5856  -11.6077    0.0000 H   0  0  0  0  0  0  0  0  0  0  0  0
    2.3100   -2.9631    0.0000 H   0  0  0  0  0  0  0  0  0  0  0  0
    1.4631   -3.1900    0.0000 H   0  0  0  0  0  0  0  0  0  0  0  0
    1.6900   -4.0369    0.0000 H   0  0  0  0  0  0  0  0  0  0  0  0
   24.8267   13.9631    0.0000 H   0  0  0  0  0  0  0  0  0  0  0  0
   25.0536   14.8100    0.0000 H   0  0  0  0  0  0  0  0  0  0  0  0
   24.2067   15.0369    0.0000 H   0  0  0  0  0  0  0  0  0  0  0  0
   22.5292  -10.1077    0.0000 H   0  0  0  0  0  0  0  0  0  0  0  0
   22.1306   -9.4174    0.0000 H   0  0  0  0  0  0  0  0  0  0  0  0
    7.4082  -13.0826    0.0000 H   0  0  0  0  0  0  0  0  0  0  0  0
    7.8067  -12.3923    0.0000 H   0  0  0  0  0  0  0  0  0  0  0  0
   11.2803   15.5000    0.0000 H   0  0  0  0  0  0  0  0  0  0  0  0
   10.6603   16.1200    0.0000 H   0  0  0  0  0  0  0  0  0  0  0  0
   10.0403   15.5000    0.0000 H   0  0  0  0  0  0  0  0  0  0  0  0
    6.1181  -12.4174    0.0000 H   0  0  0  0  0  0  0  0  0  0  0  0
    5.7196  -13.1077    0.0000 H   0  0  0  0  0  0  0  0  0  0  0  0
   21.3080  -10.8923    0.0000 H   0  0  0  0  0  0  0  0  0  0  0  0
   21.7065  -11.5826    0.0000 H   0  0  0  0  0  0  0  0  0  0  0  0
    6.5422  -14.5826    0.0000 H   0  0  0  0  0  0  0  0  0  0  0  0
    6.9407  -13.8923    0.0000 H   0  0  0  0  0  0  0  0  0  0  0  0
   22.4746  -12.0369    0.0000 H   0  0  0  0  0  0  0  0  0  0  0  0
   23.3215  -11.8100    0.0000 H   0  0  0  0  0  0  0  0  0  0  0  0
   23.0946  -10.9631    0.0000 H   0  0  0  0  0  0  0  0  0  0  0  0
    5.2521  -13.9174    0.0000 H   0  0  0  0  0  0  0  0  0  0  0  0
    4.8535  -14.6077    0.0000 H   0  0  0  0  0  0  0  0  0  0  0  0
    4.8441  -15.5000    0.0000 H   0  0  0  0  0  0  0  0  0  0  0  0
    5.4641  -16.1200    0.0000 H   0  0  0  0  0  0  0  0  0  0  0  0
    6.0841  -15.5000    0.0000 H   0  0  0  0  0  0  0  0  0  0  0  0
  1  7  1  0  0  0  0
  1 13  1  0  0  0  0
  1 14  1  0  0  0  0
  1 18  2  0  0  0  0
  2 10  1  0  0  0  0
  2 21  1  0  0  0  0
  2 22  1  0  0  0  0
  2 23  2  0  0  0  0
  3 33  1  0  0  0  0
  3 35  1  0  0  0  0
 33  4  1  1  0  0  0
  4 40  1  0  0  0  0
  5 34  1  0  0  0  0
  5 39  1  0  0  0  0
 31  6  1  1  0  0  0
  6 43  1  0  0  0  0
 32  7  1  6  0  0  0
 37  8  1  6  0  0  0
  8 46  1  0  0  0  0
 36  9  1  1  0  0  0
  9140  1  0  0  0  0
 39 10  1  1  0  0  0
 11 41  1  0  0  0  0
 11148  1  0  0  0  0
 12 42  2  0  0  0  0
 13164  1  0  0  0  0
 14165  1  0  0  0  0
 47 15  1  6  0  0  0
 15 68  1  0  0  0  0
 16 43  2  0  0  0  0
 17 45  2  0  0  0  0
 50 19  1  6  0  0  0
 19 71  1  0  0  0  0
 20 46  2  0  0  0  0
 21174  1  0  0  0  0
 22175  1  0  0  0  0
 53 24  1  6  0  0  0
 24182  1  0  0  0  0
 54 25  1  6  0  0  0
 25187  1  0  0  0  0
 26 68  2  0  0  0  0
 27 71  2  0  0  0  0
 30 28  1  6  0  0  0
 28 42  1  0  0  0  0
 28136  1  0  0  0  0
 38 29  1  1  0  0  0
 29 45  1  0  0  0  0
 29139  1  0  0  0  0
 30 31  1  0  0  0  0
 30 33  1  0  0  0  0
 30124  1  0  0  0  0
 31 32  1  0  0  0  0
 31125  1  0  0  0  0
 32 35  1  0  0  0  0
 32126  1  0  0  0  0
 33127  1  0  0  0  0
 34 36  1  0  0  0  0
 34 40  1  6  0  0  0
 34128  1  0  0  0  0
 35 41  1  1  0  0  0
 35129  1  0  0  0  0
 36 37  1  0  0  0  0
 36130  1  0  0  0  0
 37 38  1  0  0  0  0
 37131  1  0  0  0  0
 38 39  1  0  0  0  0
 38132  1  0  0  0  0
 39133  1  0  0  0  0
 40134  1  0  0  0  0
 40135  1  0  0  0  0
 41137  1  0  0  0  0
 41138  1  0  0  0  0
 42 44  1  0  0  0  0
 43 48  1  0  0  0  0
 44 47  1  0  0  0  0
 44141  1  0  0  0  0
 44142  1  0  0  0  0
 45 49  1  0  0  0  0
 46 51  1  0  0  0  0
 47 52  1  0  0  0  0
 47143  1  0  0  0  0
 48 50  1  0  0  0  0
 48144  1  0  0  0  0
 48145  1  0  0  0  0
 49 53  1  0  0  0  0
 49146  1  0  0  0  0
 49147  1  0  0  0  0
 50 55  1  0  0  0  0
 50149  1  0  0  0  0
 51 54  1  0  0  0  0
 51150  1  0  0  0  0
 51151  1  0  0  0  0
 52 56  1  0  0  0  0
 52152  1  0  0  0  0
 52153  1  0  0  0  0
 53 57  1  0  0  0  0
 53154  1  0  0  0  0
 54 58  1  0  0  0  0
 54155  1  0  0  0  0
 55 59  1  0  0  0  0
 55156  1  0  0  0  0
 55157  1  0  0  0  0
 56 60  1  0  0  0  0
 56158  1  0  0  0  0
 56159  1  0  0  0  0
 57 61  1  0  0  0  0
 57160  1  0  0  0  0
 57161  1  0  0  0  0
 58 62  1  0  0  0  0
 58162  1  0  0  0  0
 58163  1  0  0  0  0
 59 63  1  0  0  0  0
 59166  1  0  0  0  0
 59167  1  0  0  0  0
 60 64  1  0  0  0  0
 60168  1  0  0  0  0
 60169  1  0  0  0  0
 61 65  1  0  0  0  0
 61170  1  0  0  0  0
 61171  1  0  0  0  0
 62 66  1  0  0  0  0
 62172  1  0  0  0  0
 62173  1  0  0  0  0
 63 67  1  0  0  0  0
 63176  1  0  0  0  0
 63177  1  0  0  0  0
 64 69  1  0  0  0  0
 64178  1  0  0  0  0
 64179  1  0  0  0  0
 65 70  1  0  0  0  0
 65180  1  0  0  0  0
 65181  1  0  0  0  0
 66 72  1  0  0  0  0
 66183  1  0  0  0  0
 66184  1  0  0  0  0
 67 73  1  0  0  0  0
 67185  1  0  0  0  0
 67186  1  0  0  0  0
 68 74  1  0  0  0  0
 69 75  1  0  0  0  0
 69188  1  0  0  0  0
 69189  1  0  0  0  0
 70 76  1  0  0  0  0
 70190  1  0  0  0  0
 70191  1  0  0  0  0
 71 77  1  0  0  0  0
 72 78  1  0  0  0  0
 72192  1  0  0  0  0
 72193  1  0  0  0  0
 73 80  1  0  0  0  0
 73194  1  0  0  0  0
 73195  1  0  0  0  0
 74 79  1  0  0  0  0
 74196  1  0  0  0  0
 74197  1  0  0  0  0
 75 82  1  0  0  0  0
 75198  1  0  0  0  0
 75199  1  0  0  0  0
 76 81  1  0  0  0  0
 76200  1  0  0  0  0
 76201  1  0  0  0  0
 77 83  1  0  0  0  0
 77202  1  0  0  0  0
 77203  1  0  0  0  0
 78 84  1  0  0  0  0
 78204  1  0  0  0  0
 78205  1  0  0  0  0
 79 85  1  0  0  0  0
 79206  1  0  0  0  0
 79207  1  0  0  0  0
 80 86  1  0  0  0  0
 80208  1  0  0  0  0
 80209  1  0  0  0  0
 81 87  1  0  0  0  0
 81210  1  0  0  0  0
 81211  1  0  0  0  0
 82 88  1  0  0  0  0
 82212  1  0  0  0  0
 82213  1  0  0  0  0
 83 89  1  0  0  0  0
 83214  1  0  0  0  0
 83215  1  0  0  0  0
 84 90  1  0  0  0  0
 84216  1  0  0  0  0
 84217  1  0  0  0  0
 85 91  1  0  0  0  0
 85218  1  0  0  0  0
 85219  1  0  0  0  0
 86 92  1  0  0  0  0
 86220  1  0  0  0  0
 86221  1  0  0  0  0
 87 93  1  0  0  0  0
 87222  1  0  0  0  0
 87223  1  0  0  0  0
 88 95  1  0  0  0  0
 88224  1  0  0  0  0
 88225  1  0  0  0  0
 89 94  1  0  0  0  0
 89226  1  0  0  0  0
 89227  1  0  0  0  0
 90 97  1  0  0  0  0
 90228  1  0  0  0  0
 90229  1  0  0  0  0
 91 96  1  0  0  0  0
 91230  1  0  0  0  0
 91231  1  0  0  0  0
 92 98  1  0  0  0  0
 92232  1  0  0  0  0
 92233  1  0  0  0  0
 93100  1  0  0  0  0
 93234  1  0  0  0  0
 93235  1  0  0  0  0
 94 99  1  0  0  0  0
 94236  1  0  0  0  0
 94237  1  0  0  0  0
 95102  1  0  0  0  0
 95238  1  0  0  0  0
 95239  1  0  0  0  0
 96101  1  0  0  0  0
 96240  1  0  0  0  0
 96241  1  0  0  0  0
 97103  1  0  0  0  0
 97242  1  0  0  0  0
 97243  1  0  0  0  0
 98105  1  0  0  0  0
 98244  1  0  0  0  0
 98245  1  0  0  0  0
 99104  1  0  0  0  0
 99246  1  0  0  0  0
 99247  1  0  0  0  0
100107  1  0  0  0  0
100248  1  0  0  0  0
100249  1  0  0  0  0
101106  1  0  0  0  0
101250  1  0  0  0  0
101251  1  0  0  0  0
102111  1  0  0  0  0
102252  1  0  0  0  0
102253  1  0  0  0  0
103109  1  0  0  0  0
103254  1  0  0  0  0
103255  1  0  0  0  0
104108  1  0  0  0  0
104256  1  0  0  0  0
104257  1  0  0  0  0
105113  1  0  0  0  0
105258  1  0  0  0  0
105259  1  0  0  0  0
106110  1  0  0  0  0
106260  1  0  0  0  0
106261  1  0  0  0  0
107114  1  0  0  0  0
107262  1  0  0  0  0
107263  1  0  0  0  0
108112  1  0  0  0  0
108264  1  0  0  0  0
108265  1  0  0  0  0
109117  1  0  0  0  0
109266  1  0  0  0  0
109267  1  0  0  0  0
110115  1  0  0  0  0
110268  1  0  0  0  0
110269  1  0  0  0  0
111270  1  0  0  0  0
111271  1  0  0  0  0
111272  1  0  0  0  0
112116  1  0  0  0  0
112273  1  0  0  0  0
112274  1  0  0  0  0
113275  1  0  0  0  0
113276  1  0  0  0  0
113277  1  0  0  0  0
114278  1  0  0  0  0
114279  1  0  0  0  0
114280  1  0  0  0  0
115119  1  0  0  0  0
115281  1  0  0  0  0
115282  1  0  0  0  0
116118  1  0  0  0  0
116283  1  0  0  0  0
116284  1  0  0  0  0
117285  1  0  0  0  0
117286  1  0  0  0  0
117287  1  0  0  0  0
118120  1  0  0  0  0
118288  1  0  0  0  0
118289  1  0  0  0  0
119121  1  0  0  0  0
119290  1  0  0  0  0
119291  1  0  0  0  0
120122  1  0  0  0  0
120292  1  0  0  0  0
120293  1  0  0  0  0
121294  1  0  0  0  0
121295  1  0  0  0  0
121296  1  0  0  0  0
122123  1  0  0  0  0
122297  1  0  0  0  0
122298  1  0  0  0  0
123299  1  0  0  0  0
123300  1  0  0  0  0
123301  1  0  0  0  0
M  END
> <PUBCHEM_COMPOUND_CID>
9877306

> <PUBCHEM_COMPOUND_CANONICALIZED>
1

> <PUBCHEM_CACTVS_COMPLEXITY>
2710

> <PUBCHEM_CACTVS_HBOND_ACCEPTOR>
25

> <PUBCHEM_CACTVS_HBOND_DONOR>
10

> <PUBCHEM_CACTVS_ROTATABLE_BOND>
88

> <PUBCHEM_CACTVS_SUBSKEYS>
AAADcfB/PgMAAAAAAAAAAAAAAAAAAAAAAAAkSAAAAAAAAAAAAAAAHgAQCCAACDzxgAcCCALABxAIQAGQGIAAAAAAAAAAAIEIAAATEBYAgAAnQAAHNgCXAAH4+K+AAAAAAAAAAAAAAAAAAAAAAAAAAAAAAA==

> <PUBCHEM_IUPAC_OPENEYE_NAME>
[(2R,3S,4R,5R,6R)-2-[[(2R,3R,4R,5S,6R)-3-[[(3R)-3-dodecanoyloxytetradecanoyl]amino]-6-(hydroxymethyl)-5-phosphonooxy-4-[(3R)-3-tetradecanoyloxytetradecanoyl]oxy-tetrahydropyran-2-yl]oxymethyl]-3-hydroxy-5-[[(3R)-3-hydroxytetradecanoyl]amino]-6-phosphonooxy-tetrahydropyran-4-yl] (3R)-3-hydroxytetradecanoate

> <PUBCHEM_IUPAC_CAS_NAME>
(3R)-3-hydroxytetradecanoic acid [(2R,3S,4R,5R,6R)-3-hydroxy-2-[[(2R,3R,4R,5S,6R)-6-(hydroxymethyl)-3-[[(3R)-1-oxo-3-(1-oxododecoxy)tetradecyl]amino]-4-[(3R)-1-oxo-3-(1-oxotetradecoxy)tetradecoxy]-5-phosphonooxy-2-oxanyl]oxymethyl]-5-[[(3R)-3-hydroxy-1-oxotetradecyl]amino]-6-phosphonooxy-4-oxanyl] ester

> <PUBCHEM_IUPAC_NAME_MARKUP>
[(2<I>R</I>,3<I>S</I>,4<I>R</I>,5<I>R</I>,6<I>R</I>)-2-[[(2<I>R</I>,3<I>R</I>,4<I>R</I>,5<I>S</I>,6<I>R</I>)-3-[[(3<I>R</I>)-3-dodecanoyloxytetradecanoyl]amino]-6-(hydroxymethyl)-5-phosphonooxy-4-[(3<I>R</I>)-3-tetradecanoyloxytetradecanoyl]oxyoxan-2-yl]oxymethyl]-3-hydroxy-5-[[(3<I>R</I>)-3-hydroxytetradecanoyl]amino]-6-phosphonooxyoxan-4-yl] (3<I>R</I>)-3-hydroxytetradecanoate

> <PUBCHEM_IUPAC_NAME>
[(2R,3S,4R,5R,6R)-2-[[(2R,3R,4R,5S,6R)-3-[[(3R)-3-dodecanoyloxytetradecanoyl]amino]-6-(hydroxymethyl)-5-phosphonooxy-4-[(3R)-3-tetradecanoyloxytetradecanoyl]oxyoxan-2-yl]oxymethyl]-3-hydroxy-5-[[(3R)-3-hydroxytetradecanoyl]amino]-6-phosphonooxyoxan-4-yl] (3R)-3-hydroxytetradecanoate

> <PUBCHEM_IUPAC_SYSTEMATIC_NAME>
[(2R,3S,4R,5R,6R)-2-[[(2R,3R,4R,5S,6R)-3-[[(3R)-3-dodecanoyloxytetradecanoyl]amino]-6-(hydroxymethyl)-5-phosphonooxy-4-[(3R)-3-tetradecanoyloxytetradecanoyl]oxy-oxan-2-yl]oxymethyl]-3-oxidanyl-5-[[(3R)-3-oxidanyltetradecanoyl]amino]-6-phosphonooxy-oxan-4-yl] (3R)-3-oxidanyltetradecanoate

> <PUBCHEM_IUPAC_TRADITIONAL_NAME>
(3R)-3-hydroxymyristic acid [(2R,3S,4R,5R,6R)-3-hydroxy-5-[[(3R)-3-hydroxytetradecanoyl]amino]-2-[[(2R,3R,4R,5S,6R)-3-[[(3R)-3-lauroyloxytetradecanoyl]amino]-6-methylol-5-phosphonooxy-4-[(3R)-3-tetradecanoyloxytetradecanoyl]oxy-tetrahydropyran-2-yl]oxymethyl]-6-phosphonooxy-tetrahydropyran-4-yl] ester

> <PUBCHEM_IUPAC_INCHI>
InChI=1S/C94H178N2O25P2/c1-7-13-19-25-31-37-38-44-50-56-62-68-84(103)115-78(66-60-54-48-42-35-29-23-17-11-5)72-86(105)119-92-88(96-82(101)71-77(65-59-53-47-41-34-28-22-16-10-4)114-83(102)67-61-55-49-43-36-30-24-18-12-6)93(116-79(73-97)90(92)120-122(107,108)109)113-74-80-89(106)91(118-85(104)70-76(99)64-58-52-46-40-33-27-21-15-9-3)87(94(117-80)121-123(110,111)112)95-81(100)69-75(98)63-57-51-45-39-32-26-20-14-8-2/h75-80,87-94,97-99,106H,7-74H2,1-6H3,(H,95,100)(H,96,101)(H2,107,108,109)(H2,110,111,112)/t75-,76-,77-,78-,79-,80-,87-,88-,89-,90-,91-,92-,93-,94-/m1/s1

> <PUBCHEM_IUPAC_INCHIKEY>
GZQKNULLWNGMCW-PWQABINMSA-N

> <PUBCHEM_XLOGP3_AA>
26.4

> <PUBCHEM_EXACT_MASS>
1798.22274800

> <PUBCHEM_MOLECULAR_FORMULA>
C94H178N2O25P2

> <PUBCHEM_MOLECULAR_WEIGHT>
1798.4

> <PUBCHEM_SMILES>
CCCCCCCCCCCCCC(=O)O[C@H](CCCCCCCCCCC)CC(=O)O[C@@H]1[C@H]([C@@H](O[C@@H]([C@H]1OP(=O)(O)O)CO)OC[C@@H]2[C@H]([C@@H]([C@H]([C@H](O2)OP(=O)(O)O)NC(=O)C[C@@H](CCCCCCCCCCC)O)OC(=O)C[C@@H](CCCCCCCCCCC)O)O)NC(=O)C[C@@H](CCCCCCCCCCC)OC(=O)CCCCCCCCCCC

> <PUBCHEM_CONNECTIVITY_SMILES>
CCCCCCCCCCCCCC(=O)OC(CCCCCCCCCCC)CC(=O)OC1C(C(OC(C1OP(=O)(O)O)CO)OCC2C(C(C(C(O2)OP(=O)(O)O)NC(=O)CC(CCCCCCCCCCC)O)OC(=O)CC(CCCCCCCCCCC)O)O)NC(=O)CC(CCCCCCCCCCC)OC(=O)CCCCCCCCCCC

> <PUBCHEM_CACTVS_TPSA>
406

> <PUBCHEM_MONOISOTOPIC_WEIGHT>
1797.21939316

> <PUBCHEM_TOTAL_CHARGE>
0

> <PUBCHEM_HEAVY_ATOM_COUNT>
123

> <PUBCHEM_ATOM_DEF_STEREO_COUNT>
14

> <PUBCHEM_ATOM_UDEF_STEREO_COUNT>
0

> <PUBCHEM_BOND_DEF_STEREO_COUNT>
0

> <PUBCHEM_BOND_UDEF_STEREO_COUNT>
0

> <PUBCHEM_ISOTOPIC_ATOM_COUNT>
0

> <PUBCHEM_COMPONENT_COUNT>
1

> <PUBCHEM_CACTVS_TAUTO_COUNT>
-1

> <PUBCHEM_COORDINATE_TYPE>
1
5
255

> <PUBCHEM_BONDANNOTATIONS>
39  10  5
47  15  6
50  19  6
53  24  6
54  25  6
30  28  6
38  29  5
34  40  6
35  41  5
33  4  5
31  6  5
32  7  6
37  8  6
36  9  5

$$$$
