53481793
  -OEChem-02092604572D

727744  0     1  0  0  0  0  0999 V2000
   25.0536   -6.6600    0.0000 P   0  0  3  0  0  0  0  0  0  0  0  0
   22.7345    5.5394    0.0000 P   0  0  3  0  0  0  0  0  0  0  0  0
   28.1369    2.2265    0.0000 P   0  0  0  0  0  0  0  0  0  0  0  0
   26.7856   -6.6600    0.0000 P   0  0  3  0  0  0  0  0  0  0  0  0
   25.9196  -14.1600    0.0000 P   0  0  0  0  0  0  0  0  0  0  0  0
   24.2673    9.6029    0.0000 P   0  0  0  0  0  0  0  0  0  0  0  0
   23.5035   -0.2806    0.0000 O   0  0  0  0  0  0  0  0  0  0  0  0
   24.1876   -2.1600    0.0000 O   0  0  0  0  0  0  0  0  0  0  0  0
   26.4580   -0.8016    0.0000 O   0  0  0  0  0  0  0  0  0  0  0  0
   25.0536   -3.6600    0.0000 O   0  0  0  0  0  0  0  0  0  0  0  0
   22.3955    1.3018    0.0000 O   0  0  0  0  0  0  0  0  0  0  0  0
   22.4555   -5.1600    0.0000 O   0  0  0  0  0  0  0  0  0  0  0  0
   25.2145    2.3279    0.0000 O   0  0  0  0  0  0  0  0  0  0  0  0
   26.2896    1.1229    0.0000 O   0  0  0  0  0  0  0  0  0  0  0  0
   23.3215   -6.6600    0.0000 O   0  0  0  0  0  0  0  0  0  0  0  0
   20.7235   -8.1600    0.0000 O   0  0  0  0  0  0  0  0  0  0  0  0
   24.1876   -6.1600    0.0000 O   0  0  0  0  0  0  0  0  0  0  0  0
   22.4555   -3.1600    0.0000 O   0  0  0  0  0  0  0  0  0  0  0  0
   13.7953  -12.1600    0.0000 O   0  0  0  0  0  0  0  0  0  0  0  0
   26.0310    4.0788    0.0000 O   0  0  0  0  0  0  0  0  0  0  0  0
   15.5273   -9.1600    0.0000 O   0  0  0  0  0  0  0  0  0  0  0  0
   17.2594   -8.1600    0.0000 O   0  0  0  0  0  0  0  0  0  0  0  0
   23.6825    3.6135    0.0000 O   0  0  0  0  0  0  0  0  0  0  0  0
   19.8574   -6.6600    0.0000 O   0  0  0  0  0  0  0  0  0  0  0  0
   13.7953   -9.1600    0.0000 O   0  0  0  0  0  0  0  0  0  0  0  0
   12.9292  -13.6600    0.0000 O   0  0  0  0  0  0  0  0  0  0  0  0
   15.5273  -11.1600    0.0000 O   0  0  0  0  0  0  0  0  0  0  0  0
   25.5144   -3.2734    0.0000 O   0  0  0  0  0  0  0  0  0  0  0  0
   10.3312  -12.1600    0.0000 O   0  0  0  0  0  0  0  0  0  0  0  0
   24.9311    3.3933    0.0000 O   0  0  0  0  0  0  0  0  0  0  0  0
   20.7235   -6.1600    0.0000 O   0  0  0  0  0  0  0  0  0  0  0  0
   16.3933   -6.6600    0.0000 O   0  0  0  0  0  0  0  0  0  0  0  0
   22.4555   -9.1600    0.0000 O   0  0  0  0  0  0  0  0  0  0  0  0
   25.9196   -6.1600    0.0000 O   0  0  0  0  0  0  0  0  0  0  0  0
   20.8634    2.5874    0.0000 O   0  0  0  0  0  0  0  0  0  0  0  0
    9.4651  -13.6600    0.0000 O   0  0  0  0  0  0  0  0  0  0  0  0
   23.0766    4.5997    0.0000 O   0  0  0  0  0  0  0  0  0  0  0  0
   18.9914   -9.1600    0.0000 O   0  0  0  0  0  0  0  0  0  0  0  0
   21.5339    0.0667    0.0000 O   0  0  0  0  0  0  0  0  0  0  0  0
   27.8217   -0.1627    0.0000 O   0  0  0  0  0  0  0  0  0  0  0  0
   27.1369    2.2265    0.0000 O   0  0  0  0  0  0  0  0  0  0  0  0
   12.0632  -11.1600    0.0000 O   0  0  0  0  0  0  0  0  0  0  0  0
   14.6613  -12.6600    0.0000 O   0  0  0  0  0  0  0  0  0  0  0  0
   17.2594   -6.1600    0.0000 O   0  0  0  0  0  0  0  0  0  0  0  0
   27.7848   -1.9149    0.0000 O   0  0  0  0  0  0  0  0  0  0  0  0
   10.3312  -14.1600    0.0000 O   0  0  0  0  0  0  0  0  0  0  0  0
   25.1876   -8.1600    0.0000 O   0  0  0  0  0  0  0  0  0  0  0  0
   27.7502    4.4194    0.0000 O   0  0  0  0  0  0  0  0  0  0  0  0
   24.3621    6.1318    0.0000 O   0  0  0  0  0  0  0  0  0  0  0  0
    6.8671  -12.1600    0.0000 O   0  0  0  0  0  0  0  0  0  0  0  0
   24.3387    5.0209    0.0000 O   0  0  0  0  0  0  0  0  0  0  0  0
   22.8607   -1.0467    0.0000 O   0  0  0  0  0  0  0  0  0  0  0  0
   27.2293    1.4649    0.0000 O   0  0  0  0  0  0  0  0  0  0  0  0
   13.7953   -8.1600    0.0000 O   0  0  0  0  0  0  0  0  0  0  0  0
   25.0536   -9.6600    0.0000 O   0  0  0  0  0  0  0  0  0  0  0  0
   12.9292  -15.6600    0.0000 O   0  0  0  0  0  0  0  0  0  0  0  0
   13.7953   -6.1600    0.0000 O   0  0  0  0  0  0  0  0  0  0  0  0
   19.8574   -4.6600    0.0000 O   0  0  0  0  0  0  0  0  0  0  0  0
   27.6517   -5.1600    0.0000 O   0  0  0  0  0  0  0  0  0  0  0  0
   21.2107    4.5570    0.0000 O   0  0  0  0  0  0  0  0  0  0  0  0
   27.3166    5.6108    0.0000 O   0  0  0  0  0  0  0  0  0  0  0  0
   25.9196   -7.1600    0.0000 O   0  0  0  0  0  0  0  0  0  0  0  0
   27.0939    3.0119    0.0000 O   0  0  0  0  0  0  0  0  0  0  0  0
    6.8671  -14.1600    0.0000 O   0  0  0  0  0  0  0  0  0  0  0  0
   25.5536   -5.7940    0.0000 O   0  0  0  0  0  0  0  0  0  0  0  0
    6.0010  -13.6600    0.0000 O   0  0  0  0  0  0  0  0  0  0  0  0
   25.9806    1.6851    0.0000 O   0  0  0  0  0  0  0  0  0  0  0  0
   17.2594  -14.1600    0.0000 O   0  0  0  0  0  0  0  0  0  0  0  0
   12.0632   -8.1600    0.0000 O   0  0  0  0  0  0  0  0  0  0  0  0
   24.1876  -11.1600    0.0000 O   0  0  0  0  0  0  0  0  0  0  0  0
   15.5273  -15.1600    0.0000 O   0  0  0  0  0  0  0  0  0  0  0  0
   13.7953  -17.1600    0.0000 O   0  0  0  0  0  0  0  0  0  0  0  0
   24.5536   -7.5261    0.0000 O   0  0  0  0  0  0  0  0  0  0  0  0
   23.9200    7.6333    0.0000 O   0  0  0  0  0  0  0  0  0  0  0  0
   18.9914   -3.1600    0.0000 O   0  0  0  0  0  0  0  0  0  0  0  0
   16.3933   -4.6600    0.0000 O   0  0  0  0  0  0  0  0  0  0  0  0
   26.6325    7.4902    0.0000 O   0  0  0  0  0  0  0  0  0  0  0  0
    7.7331  -15.6600    0.0000 O   0  0  0  0  0  0  0  0  0  0  0  0
   22.3925    6.4791    0.0000 O   0  0  0  0  0  0  0  0  0  0  0  0
    5.1350  -11.1600    0.0000 O   0  0  0  0  0  0  0  0  0  0  0  0
   26.7856  -10.6600    0.0000 O   0  0  0  0  0  0  0  0  0  0  0  0
   25.0536  -13.6600    0.0000 O   0  0  0  0  0  0  0  0  0  0  0  0
   23.6742    5.8814    0.0000 O   0  0  0  0  0  0  0  0  0  0  0  0
   13.7953  -15.1600    0.0000 O   0  0  0  0  0  0  0  0  0  0  0  0
    3.4030  -12.1600    0.0000 O   0  0  0  0  0  0  0  0  0  0  0  0
   22.6330    5.3217    0.0000 O   0  0  0  0  0  0  0  0  0  0  0  0
   21.1009    6.6072    0.0000 O   0  0  0  0  0  0  0  0  0  0  0  0
   26.7856  -12.6600    0.0000 O   0  0  0  0  0  0  0  0  0  0  0  0
    3.4030  -14.1600    0.0000 O   0  0  0  0  0  0  0  0  0  0  0  0
   11.1972  -18.6600    0.0000 O   0  0  0  0  0  0  0  0  0  0  0  0
   10.3312  -11.1600    0.0000 O   0  0  0  0  0  0  0  0  0  0  0  0
   29.1369    2.2265    0.0000 O   0  0  0  0  0  0  0  0  0  0  0  0
   28.1369    1.2265    0.0000 O   0  0  0  0  0  0  0  0  0  0  0  0
   21.5895   -3.6600    0.0000 O   0  0  0  0  0  0  0  0  0  0  0  0
   21.7948    5.1974    0.0000 O   0  0  0  0  0  0  0  0  0  0  0  0
   12.9292  -19.6600    0.0000 O   0  0  0  0  0  0  0  0  0  0  0  0
   28.1369    3.2265    0.0000 O   0  0  0  0  0  0  0  0  0  0  0  0
   23.3276    9.2609    0.0000 O   0  0  0  0  0  0  0  0  0  0  0  0
    4.2690  -15.6600    0.0000 O   0  0  0  0  0  0  0  0  0  0  0  0
   25.5445    7.3182    0.0000 O   0  0  0  0  0  0  0  0  0  0  0  0
   21.5895   -1.6600    0.0000 O   0  0  0  0  0  0  0  0  0  0  0  0
   19.8574   -0.6600    0.0000 O   0  0  0  0  0  0  0  0  0  0  0  0
   27.1578    6.0470    0.0000 O   0  0  0  0  0  0  0  0  0  0  0  0
   27.2856   -7.5261    0.0000 O   0  0  0  0  0  0  0  0  0  0  0  0
    6.8671  -11.1600    0.0000 O   0  0  0  0  0  0  0  0  0  0  0  0
   22.4555  -12.1600    0.0000 O   0  0  0  0  0  0  0  0  0  0  0  0
   27.6517   -6.1600    0.0000 O   0  0  0  0  0  0  0  0  0  0  0  0
   18.1254  -13.6600    0.0000 O   0  0  0  0  0  0  0  0  0  0  0  0
   28.5445    7.3182    0.0000 O   0  0  0  0  0  0  0  0  0  0  0  0
   26.2856   -5.7940    0.0000 O   0  0  0  0  0  0  0  0  0  0  0  0
   14.6613  -19.6600    0.0000 O   0  0  0  0  0  0  0  0  0  0  0  0
   30.5693    5.4454    0.0000 O   0  0  0  0  0  0  0  0  0  0  0  0
    5.1350  -17.1600    0.0000 O   0  0  0  0  0  0  0  0  0  0  0  0
   18.1254   -0.6600    0.0000 O   0  0  0  0  0  0  0  0  0  0  0  0
   22.4555  -14.1600    0.0000 O   0  0  0  0  0  0  0  0  0  0  0  0
    2.5369  -16.6600    0.0000 O   0  0  0  0  0  0  0  0  0  0  0  0
   10.3312  -18.1600    0.0000 O   0  0  0  0  0  0  0  0  0  0  0  0
   25.4196  -15.0260    0.0000 O   0  0  0  0  0  0  0  0  0  0  0  0
   26.7856  -14.6600    0.0000 O   0  0  0  0  0  0  0  0  0  0  0  0
    2.5369  -18.6600    0.0000 O   0  0  0  0  0  0  0  0  0  0  0  0
   26.4196  -13.2940    0.0000 O   0  0  0  0  0  0  0  0  0  0  0  0
   22.5616    9.9037    0.0000 O   0  0  0  0  0  0  0  0  0  0  0  0
    4.2690  -19.6600    0.0000 O   0  0  0  0  0  0  0  0  0  0  0  0
   25.2070    9.9449    0.0000 O   0  0  0  0  0  0  0  0  0  0  0  0
   23.9253   10.5426    0.0000 O   0  0  0  0  0  0  0  0  0  0  0  0
   20.5085    8.2348    0.0000 O   0  0  0  0  0  0  0  0  0  0  0  0
   24.6093    8.6632    0.0000 O   0  0  0  0  0  0  0  0  0  0  0  0
   21.9692   11.5313    0.0000 O   0  0  0  0  0  0  0  0  0  0  0  0
    6.0010  -19.6600    0.0000 O   0  0  0  0  0  0  0  0  0  0  0  0
   17.6894    7.2088    0.0000 O   0  0  0  0  0  0  0  0  0  0  0  0
   28.5445    9.0503    0.0000 O   0  0  0  0  0  0  0  0  0  0  0  0
   31.1617    3.8178    0.0000 O   0  0  0  0  0  0  0  0  0  0  0  0
   12.0632  -11.1600    0.0000 N   0  0  0  0  0  0  0  0  0  0  0  0
   25.5445    5.5862    0.0000 N   0  0  0  0  0  0  0  0  0  0  0  0
    8.5991  -11.1600    0.0000 N   0  0  0  0  0  0  0  0  0  0  0  0
   17.2594  -12.1600    0.0000 N   0  0  0  0  0  0  0  0  0  0  0  0
   11.1972  -16.6600    0.0000 N   0  0  0  0  0  0  0  0  0  0  0  0
   21.4482    8.5769    0.0000 N   0  0  0  0  0  0  0  0  0  0  0  0
   23.3361    8.9509    0.0000 N   0  0  0  0  0  0  0  0  0  0  0  0
   29.7856   -8.3921    0.0000 N   0  0  0  0  0  0  0  0  0  0  0  0
   24.8304   -1.3940    0.0000 C   0  0  1  0  0  0  0  0  0  0  0  0
   24.4883   -0.4543    0.0000 C   0  0  1  0  0  0  0  0  0  0  0  0
   25.8152   -1.5676    0.0000 C   0  0  1  0  0  0  0  0  0  0  0  0
   25.1311    0.3118    0.0000 C   0  0  0  0  0  0  0  0  0  0  0  0
   23.1615    0.6591    0.0000 C   0  0  1  0  0  0  0  0  0  0  0  0
   26.1159    0.1381    0.0000 C   0  0  2  0  0  0  0  0  0  0  0  0
   23.3215   -4.6600    0.0000 C   0  0  2  0  0  0  0  0  0  0  0  0
   24.1876   -3.1600    0.0000 C   0  0  3  0  0  0  0  0  0  0  0  0
   23.3215   -3.6600    0.0000 C   0  0  1  0  0  0  0  0  0  0  0  0
   24.1876   -5.1600    0.0000 C   0  0  1  0  0  0  0  0  0  0  0  0
   24.2749    1.9859    0.0000 C   0  0  2  0  0  0  0  0  0  0  0  0
   24.1012    1.0011    0.0000 C   0  0  0  0  0  0  0  0  0  0  0  0
   25.0536   -4.6600    0.0000 C   0  0  1  0  0  0  0  0  0  0  0  0
   23.5088    2.6287    0.0000 C   0  0  1  0  0  0  0  0  0  0  0  0
   22.5691    2.2867    0.0000 C   0  0  1  0  0  0  0  0  0  0  0  0
   26.1572   -2.5073    0.0000 C   0  0  2  0  0  0  0  0  0  0  0  0
   21.5895   -7.6600    0.0000 C   0  0  2  0  0  0  0  0  0  0  0  0
   22.4555   -6.1600    0.0000 C   0  0  3  0  0  0  0  0  0  0  0  0
   21.5895   -6.6600    0.0000 C   0  0  1  0  0  0  0  0  0  0  0  0
   22.4555   -8.1600    0.0000 C   0  0  1  0  0  0  0  0  0  0  0  0
   23.3215   -7.6600    0.0000 C   0  0  1  0  0  0  0  0  0  0  0  0
   25.3882    3.3127    0.0000 C   0  0  1  0  0  0  0  0  0  0  0  0
   25.9196   -5.1600    0.0000 C   0  0  2  0  0  0  0  0  0  0  0  0
   13.7953  -11.1600    0.0000 C   0  0  2  0  0  0  0  0  0  0  0  0
   14.6613  -10.6600    0.0000 C   0  0  2  0  0  0  0  0  0  0  0  0
   21.8031    2.9294    0.0000 C   0  0  2  0  0  0  0  0  0  0  0  0
   18.1254   -7.6600    0.0000 C   0  0  2  0  0  0  0  0  0  0  0  0
   19.8574   -7.6600    0.0000 C   0  0  3  0  0  0  0  0  0  0  0  0
   18.9914   -8.1600    0.0000 C   0  0  2  0  0  0  0  0  0  0  0  0
   11.1972  -12.6600    0.0000 C   0  0  2  0  0  0  0  0  0  0  0  0
   12.0632  -12.1600    0.0000 C   0  0  2  0  0  0  0  0  0  0  0  0
   24.4034    3.4864    0.0000 C   0  0  0  0  0  0  0  0  0  0  0  0
   14.6613   -9.6600    0.0000 C   0  0  3  0  0  0  0  0  0  0  0  0
   15.5273   -8.1600    0.0000 C   0  0  1  0  0  0  0  0  0  0  0  0
   22.5187   -0.1070    0.0000 C   0  0  0  0  0  0  0  0  0  0  0  0
   25.6972    2.7505    0.0000 C   0  0  2  0  0  0  0  0  0  0  0  0
   27.0556    0.4801    0.0000 C   0  0  0  0  0  0  0  0  0  0  0  0
   12.9292  -10.6600    0.0000 C   0  0  1  0  0  0  0  0  0  0  0  0
   12.9292  -12.6600    0.0000 C   0  0  2  0  0  0  0  0  0  0  0  0
   25.5235    1.7657    0.0000 C   0  0  0  0  0  0  0  0  0  0  0  0
   18.1254   -6.6600    0.0000 C   0  0  1  0  0  0  0  0  0  0  0  0
   24.0614    4.4261    0.0000 C   0  0  2  0  0  0  0  0  0  0  0  0
   16.3933   -7.6600    0.0000 C   0  0  1  0  0  0  0  0  0  0  0  0
   25.6890    5.0185    0.0000 C   0  0  1  0  0  0  0  0  0  0  0  0
   27.1420   -2.6810    0.0000 C   0  0  0  0  0  0  0  0  0  0  0  0
   11.1972  -13.6600    0.0000 C   0  0  2  0  0  0  0  0  0  0  0  0
   24.1876   -8.1600    0.0000 C   0  0  2  0  0  0  0  0  0  0  0  0
   24.7042    5.1921    0.0000 C   0  0  1  0  0  0  0  0  0  0  0  0
   26.6369    3.0925    0.0000 C   0  0  2  0  0  0  0  0  0  0  0  0
   18.9914   -6.1600    0.0000 C   0  0  1  0  0  0  0  0  0  0  0  0
   12.9292   -9.6600    0.0000 C   0  0  1  0  0  0  0  0  0  0  0  0
   12.0632  -14.1600    0.0000 C   0  0  1  0  0  0  0  0  0  0  0  0
   14.6613   -7.6600    0.0000 C   0  0  2  0  0  0  0  0  0  0  0  0
   26.8105    4.0773    0.0000 C   0  0  1  0  0  0  0  0  0  0  0  0
   26.0445    4.7201    0.0000 C   0  0  2  0  0  0  0  0  0  0  0  0
   14.6613   -6.6600    0.0000 C   0  0  2  0  0  0  0  0  0  0  0  0
    9.4651  -12.6600    0.0000 C   0  0  2  0  0  0  0  0  0  0  0  0
    8.5991  -12.1600    0.0000 C   0  0  1  0  0  0  0  0  0  0  0  0
   25.1048    4.3781    0.0000 C   0  0  1  0  0  0  0  0  0  0  0  0
   26.7856   -4.6600    0.0000 C   0  0  0  0  0  0  0  0  0  0  0  0
   15.5273   -6.1600    0.0000 C   0  0  1  0  0  0  0  0  0  0  0  0
    7.7331  -12.6600    0.0000 C   0  0  2  0  0  0  0  0  0  0  0  0
   21.9767    3.9143    0.0000 C   0  0  0  0  0  0  0  0  0  0  0  0
   15.5273  -12.1600    0.0000 C   0  0  2  0  0  0  0  0  0  0  0  0
   26.3317    5.7845    0.0000 C   0  0  2  0  0  0  0  0  0  0  0  0
   16.3933  -12.6600    0.0000 C   0  0  1  0  0  0  0  0  0  0  0  0
   26.1542    2.6699    0.0000 C   0  0  0  0  0  0  0  0  0  0  0  0
    7.7331  -13.6600    0.0000 C   0  0  2  0  0  0  0  0  0  0  0  0
   24.1876   -9.1600    0.0000 C   0  0  0  0  0  0  0  0  0  0  0  0
   18.9914   -5.1600    0.0000 C   0  0  0  0  0  0  0  0  0  0  0  0
    8.5991  -14.1600    0.0000 C   0  0  1  0  0  0  0  0  0  0  0  0
   12.0632  -15.1600    0.0000 C   0  0  0  0  0  0  0  0  0  0  0  0
   16.3933  -13.6600    0.0000 C   0  0  2  0  0  0  0  0  0  0  0  0
   12.0632   -9.1600    0.0000 C   0  0  0  0  0  0  0  0  0  0  0  0
   15.5273  -14.1600    0.0000 C   0  0  1  0  0  0  0  0  0  0  0  0
   14.6613  -13.6600    0.0000 C   0  0  1  0  0  0  0  0  0  0  0  0
   15.5273   -5.1600    0.0000 C   0  0  0  0  0  0  0  0  0  0  0  0
   25.9897    6.7242    0.0000 C   0  0  0  0  0  0  0  0  0  0  0  0
    6.0010  -12.6600    0.0000 C   0  0  1  0  0  0  0  0  0  0  0  0
   25.0536  -10.6600    0.0000 C   0  0  3  0  0  0  0  0  0  0  0  0
    8.5991  -15.1600    0.0000 C   0  0  0  0  0  0  0  0  0  0  0  0
   12.9292  -16.6600    0.0000 C   0  0  2  0  0  0  0  0  0  0  0  0
   24.5124    6.0057    0.0000 C   0  0  0  0  0  0  0  0  0  0  0  0
    5.1350  -12.1600    0.0000 C   0  0  1  0  0  0  0  0  0  0  0  0
   23.7463    6.6485    0.0000 C   0  0  2  0  0  0  0  0  0  0  0  0
   12.0632  -17.1600    0.0000 C   0  0  1  0  0  0  0  0  0  0  0  0
   19.8574   -3.6600    0.0000 C   0  0  1  0  0  0  0  0  0  0  0  0
   11.1972  -10.6600    0.0000 C   0  0  0  0  0  0  0  0  0  0  0  0
   25.9196  -11.1600    0.0000 C   0  0  2  0  0  0  0  0  0  0  0  0
   13.7953  -14.1600    0.0000 C   0  0  0  0  0  0  0  0  0  0  0  0
    4.2690  -12.6600    0.0000 C   0  0  2  0  0  0  0  0  0  0  0  0
   22.8067    6.3065    0.0000 C   0  0  2  0  0  0  0  0  0  0  0  0
   25.9196  -12.1600    0.0000 C   0  0  2  0  0  0  0  0  0  0  0  0
    5.1350  -14.1600    0.0000 C   0  0  1  0  0  0  0  0  0  0  0  0
    4.2690  -13.6600    0.0000 C   0  0  2  0  0  0  0  0  0  0  0  0
   12.0632  -18.1600    0.0000 C   0  0  2  0  0  0  0  0  0  0  0  0
   24.1876  -12.1600    0.0000 C   0  0  1  0  0  0  0  0  0  0  0  0
   25.0536  -12.6600    0.0000 C   0  0  1  0  0  0  0  0  0  0  0  0
   20.7235   -3.1600    0.0000 C   0  0  1  0  0  0  0  0  0  0  0  0
   26.0445    6.4522    0.0000 C   0  0  0  0  0  0  0  0  0  0  0  0
   22.0406    6.9493    0.0000 C   0  0  1  0  0  0  0  0  0  0  0  0
   12.9292  -18.6600    0.0000 C   0  0  1  0  0  0  0  0  0  0  0  0
   13.7953  -18.1600    0.0000 C   0  0  1  0  0  0  0  0  0  0  0  0
   22.2143    7.9341    0.0000 C   0  0  2  0  0  0  0  0  0  0  0  0
   27.9239    5.4042    0.0000 C   0  0  0  0  0  0  0  0  0  0  0  0
   20.7235   -2.1600    0.0000 C   0  0  2  0  0  0  0  0  0  0  0  0
   23.1540    8.2761    0.0000 C   0  0  2  0  0  0  0  0  0  0  0  0
    7.7331  -10.6600    0.0000 C   0  0  0  0  0  0  0  0  0  0  0  0
   19.8574   -1.6600    0.0000 C   0  0  2  0  0  0  0  0  0  0  0  0
   18.9914   -2.1600    0.0000 C   0  0  1  0  0  0  0  0  0  0  0  0
   27.0445    6.4522    0.0000 C   0  0  0  0  0  0  0  0  0  0  0  0
   23.3215  -12.6600    0.0000 C   0  0  2  0  0  0  0  0  0  0  0  0
   18.1254  -12.6600    0.0000 C   0  0  0  0  0  0  0  0  0  0  0  0
    5.1350  -15.1600    0.0000 C   0  0  0  0  0  0  0  0  0  0  0  0
   11.1972   -9.6600    0.0000 C   0  0  0  0  0  0  0  0  0  0  0  0
   28.8636    5.7462    0.0000 C   0  0  0  0  0  0  0  0  0  0  0  0
   27.5445    7.3182    0.0000 C   0  0  1  0  0  0  0  0  0  0  0  0
   14.6613  -18.6600    0.0000 C   0  0  0  0  0  0  0  0  0  0  0  0
   29.6296    5.1034    0.0000 C   0  0  1  0  0  0  0  0  0  0  0  0
   18.1254   -1.6600    0.0000 C   0  0  0  0  0  0  0  0  0  0  0  0
    7.7331   -9.6600    0.0000 C   0  0  0  0  0  0  0  0  0  0  0  0
   23.3215  -13.6600    0.0000 C   0  0  0  0  0  0  0  0  0  0  0  0
   18.9914  -12.1600    0.0000 C   0  0  0  0  0  0  0  0  0  0  0  0
   27.0445    8.1842    0.0000 C   0  0  0  0  0  0  0  0  0  0  0  0
   23.0353    7.2451    0.0000 C   0  0  0  0  0  0  0  0  0  0  0  0
    4.2690  -16.6600    0.0000 C   0  0  1  0  0  0  0  0  0  0  0  0
   29.4560    4.1186    0.0000 C   0  0  0  0  0  0  0  0  0  0  0  0
   10.3312  -17.1600    0.0000 C   0  0  0  0  0  0  0  0  0  0  0  0
    3.4030  -17.1600    0.0000 C   0  0  1  0  0  0  0  0  0  0  0  0
   21.6219    9.5617    0.0000 C   0  0  0  0  0  0  0  0  0  0  0  0
   27.5445    9.0503    0.0000 C   0  0  0  0  0  0  0  0  0  0  0  0
    3.4030  -18.1600    0.0000 C   0  0  2  0  0  0  0  0  0  0  0  0
   20.3349    7.2500    0.0000 C   0  0  0  0  0  0  0  0  0  0  0  0
   30.2220    3.4758    0.0000 C   0  0  0  0  0  0  0  0  0  0  0  0
    4.2690  -18.6600    0.0000 C   0  0  2  0  0  0  0  0  0  0  0  0
    5.1350  -18.1600    0.0000 C   0  0  1  0  0  0  0  0  0  0  0  0
   22.6933    8.1848    0.0000 C   0  0  0  0  0  0  0  0  0  0  0  0
   20.8558   10.2045    0.0000 C   0  0  0  0  0  0  0  0  0  0  0  0
   28.2856   -7.5261    0.0000 C   0  0  0  0  0  0  0  0  0  0  0  0
   27.0445    9.9163    0.0000 C   0  0  0  0  0  0  0  0  0  0  0  0
    9.4651  -16.6600    0.0000 C   0  0  0  0  0  0  0  0  0  0  0  0
   19.3952    6.9080    0.0000 C   0  0  0  0  0  0  0  0  0  0  0  0
   30.0484    2.4910    0.0000 C   0  0  0  0  0  0  0  0  0  0  0  0
   21.0295   11.1893    0.0000 C   0  0  1  0  0  0  0  0  0  0  0  0
   29.0445    8.1842    0.0000 C   0  0  0  0  0  0  0  0  0  0  0  0
    6.0010  -18.6600    0.0000 C   0  0  0  0  0  0  0  0  0  0  0  0
   27.5445   10.7823    0.0000 C   0  0  0  0  0  0  0  0  0  0  0  0
   18.6291    7.5508    0.0000 C   0  0  1  0  0  0  0  0  0  0  0  0
   31.3353    4.8026    0.0000 C   0  0  0  0  0  0  0  0  0  0  0  0
   30.8144    1.8482    0.0000 C   0  0  0  0  0  0  0  0  0  0  0  0
   28.7856   -8.3921    0.0000 C   0  0  0  0  0  0  0  0  0  0  0  0
   20.2634   11.8320    0.0000 C   0  0  0  0  0  0  0  0  0  0  0  0
   30.0445    8.1842    0.0000 C   0  0  0  0  0  0  0  0  0  0  0  0
   28.5445   10.7823    0.0000 C   0  0  0  0  0  0  0  0  0  0  0  0
   18.8028    8.5356    0.0000 C   0  0  0  0  0  0  0  0  0  0  0  0
   32.2750    5.1447    0.0000 C   0  0  0  0  0  0  0  0  0  0  0  0
   31.7541    2.1902    0.0000 C   0  0  0  0  0  0  0  0  0  0  0  0
   20.4371   12.8169    0.0000 C   0  0  0  0  0  0  0  0  0  0  0  0
   30.5445    9.0503    0.0000 C   0  0  0  0  0  0  0  0  0  0  0  0
   29.0445   11.6483    0.0000 C   0  0  0  0  0  0  0  0  0  0  0  0
   18.0367    9.1784    0.0000 C   0  0  0  0  0  0  0  0  0  0  0  0
   33.0411    4.5019    0.0000 C   0  0  0  0  0  0  0  0  0  0  0  0
   32.5201    1.5474    0.0000 C   0  0  0  0  0  0  0  0  0  0  0  0
   19.6710   13.4596    0.0000 C   0  0  0  0  0  0  0  0  0  0  0  0
   31.5445    9.0503    0.0000 C   0  0  0  0  0  0  0  0  0  0  0  0
   30.0445   11.6483    0.0000 C   0  0  0  0  0  0  0  0  0  0  0  0
   18.2104   10.1632    0.0000 C   0  0  0  0  0  0  0  0  0  0  0  0
   33.9808    4.8439    0.0000 C   0  0  0  0  0  0  0  0  0  0  0  0
   33.4598    1.8895    0.0000 C   0  0  0  0  0  0  0  0  0  0  0  0
   19.8447   14.4444    0.0000 C   0  0  0  0  0  0  0  0  0  0  0  0
   32.0445    9.9163    0.0000 C   0  0  0  0  0  0  0  0  0  0  0  0
   30.5445   12.5144    0.0000 C   0  0  0  0  0  0  0  0  0  0  0  0
   17.4443   10.8060    0.0000 C   0  0  0  0  0  0  0  0  0  0  0  0
   34.7468    4.2011    0.0000 C   0  0  0  0  0  0  0  0  0  0  0  0
   34.2259    1.2467    0.0000 C   0  0  0  0  0  0  0  0  0  0  0  0
   19.0786   15.0872    0.0000 C   0  0  0  0  0  0  0  0  0  0  0  0
   33.0445    9.9163    0.0000 C   0  0  0  0  0  0  0  0  0  0  0  0
   17.6180   11.7908    0.0000 C   0  0  0  0  0  0  0  0  0  0  0  0
   31.5445   12.5144    0.0000 C   0  0  0  0  0  0  0  0  0  0  0  0
   35.6865    4.5431    0.0000 C   0  0  0  0  0  0  0  0  0  0  0  0
   35.1656    1.5887    0.0000 C   0  0  0  0  0  0  0  0  0  0  0  0
   19.2523   16.0720    0.0000 C   0  0  0  0  0  0  0  0  0  0  0  0
   33.5445   10.7823    0.0000 C   0  0  0  0  0  0  0  0  0  0  0  0
   16.8519   12.4336    0.0000 C   0  0  0  0  0  0  0  0  0  0  0  0
   36.4526    3.9003    0.0000 C   0  0  0  0  0  0  0  0  0  0  0  0
   32.0445   13.3804    0.0000 C   0  0  0  0  0  0  0  0  0  0  0  0
   35.9316    0.9459    0.0000 C   0  0  0  0  0  0  0  0  0  0  0  0
   18.4862   16.7148    0.0000 C   0  0  0  0  0  0  0  0  0  0  0  0
   34.5445   10.7823    0.0000 C   0  0  0  0  0  0  0  0  0  0  0  0
   15.9123   12.0916    0.0000 C   0  0  0  0  0  0  0  0  0  0  0  0
   37.3922    4.2424    0.0000 C   0  0  0  0  0  0  0  0  0  0  0  0
   18.6599   17.6996    0.0000 C   0  0  0  0  0  0  0  0  0  0  0  0
   35.0445   11.6483    0.0000 C   0  0  0  0  0  0  0  0  0  0  0  0
   33.0445   13.3804    0.0000 C   0  0  0  0  0  0  0  0  0  0  0  0
   15.1462   12.7343    0.0000 C   0  0  0  0  0  0  0  0  0  0  0  0
   38.1583    3.5996    0.0000 C   0  0  0  0  0  0  0  0  0  0  0  0
   36.8713    1.2879    0.0000 C   0  0  0  0  0  0  0  0  0  0  0  0
   17.8938   18.3424    0.0000 C   0  0  0  0  0  0  0  0  0  0  0  0
   36.0445   11.6483    0.0000 C   0  0  0  0  0  0  0  0  0  0  0  0
   39.0980    3.9416    0.0000 C   0  0  0  0  0  0  0  0  0  0  0  0
   14.2065   12.3923    0.0000 C   0  0  0  0  0  0  0  0  0  0  0  0
   18.0675   19.3272    0.0000 C   0  0  0  0  0  0  0  0  0  0  0  0
   39.8640    3.2988    0.0000 C   0  0  0  0  0  0  0  0  0  0  0  0
   36.5445   12.5144    0.0000 C   0  0  0  0  0  0  0  0  0  0  0  0
   13.4405   13.0351    0.0000 C   0  0  0  0  0  0  0  0  0  0  0  0
   40.8037    3.6408    0.0000 C   0  0  0  0  0  0  0  0  0  0  0  0
   17.3014   19.9700    0.0000 C   0  0  0  0  0  0  0  0  0  0  0  0
   37.5445   12.5144    0.0000 C   0  0  0  0  0  0  0  0  0  0  0  0
   12.5008   12.6931    0.0000 C   0  0  0  0  0  0  0  0  0  0  0  0
   41.5698    2.9980    0.0000 C   0  0  0  0  0  0  0  0  0  0  0  0
   42.5095    3.3401    0.0000 C   0  0  0  0  0  0  0  0  0  0  0  0
   25.0424   -1.9766    0.0000 H   0  0  0  0  0  0  0  0  0  0  0  0
   24.2763    0.1283    0.0000 H   0  0  0  0  0  0  0  0  0  0  0  0
   26.6523   -1.7152    0.0000 H   0  0  0  0  0  0  0  0  0  0  0  0
   25.3432    0.8944    0.0000 H   0  0  0  0  0  0  0  0  0  0  0  0
   24.5942    0.6218    0.0000 H   0  0  0  0  0  0  0  0  0  0  0  0
   23.8585   -4.9700    0.0000 H   0  0  0  0  0  0  0  0  0  0  0  0
   23.6506   -2.8500    0.0000 H   0  0  0  0  0  0  0  0  0  0  0  0
   22.7846   -3.9700    0.0000 H   0  0  0  0  0  0  0  0  0  0  0  0
   24.7245   -5.4700    0.0000 H   0  0  0  0  0  0  0  0  0  0  0  0
   24.3825    2.5965    0.0000 H   0  0  0  0  0  0  0  0  0  0  0  0
   24.2089    0.3905    0.0000 H   0  0  0  0  0  0  0  0  0  0  0  0
   24.7212    1.0011    0.0000 H   0  0  0  0  0  0  0  0  0  0  0  0
   25.7897   -4.2350    0.0000 H   0  0  0  0  0  0  0  0  0  0  0  0
   23.0339    3.0272    0.0000 H   0  0  0  0  0  0  0  0  0  0  0  0
   23.2203    1.7403    0.0000 H   0  0  0  0  0  0  0  0  0  0  0  0
   26.3692   -3.0899    0.0000 H   0  0  0  0  0  0  0  0  0  0  0  0
   21.5895   -8.2800    0.0000 H   0  0  0  0  0  0  0  0  0  0  0  0
   21.9186   -5.8500    0.0000 H   0  0  0  0  0  0  0  0  0  0  0  0
   21.5895   -6.0400    0.0000 H   0  0  0  0  0  0  0  0  0  0  0  0
   22.9925   -8.4700    0.0000 H   0  0  0  0  0  0  0  0  0  0  0  0
   24.0577   -7.2350    0.0000 H   0  0  0  0  0  0  0  0  0  0  0  0
   26.4566   -5.4700    0.0000 H   0  0  0  0  0  0  0  0  0  0  0  0
   13.2583  -11.4700    0.0000 H   0  0  0  0  0  0  0  0  0  0  0  0
   14.6613  -11.2800    0.0000 H   0  0  0  0  0  0  0  0  0  0  0  0
   21.6954    2.3189    0.0000 H   0  0  0  0  0  0  0  0  0  0  0  0
   17.5885   -7.3500    0.0000 H   0  0  0  0  0  0  0  0  0  0  0  0
   19.8574   -8.2800    0.0000 H   0  0  0  0  0  0  0  0  0  0  0  0
   18.4545   -8.4700    0.0000 H   0  0  0  0  0  0  0  0  0  0  0  0
   11.1972  -12.0400    0.0000 H   0  0  0  0  0  0  0  0  0  0  0  0
   11.5263  -11.8500    0.0000 H   0  0  0  0  0  0  0  0  0  0  0  0
   23.7928    3.3787    0.0000 H   0  0  0  0  0  0  0  0  0  0  0  0
   24.4034    2.8664    0.0000 H   0  0  0  0  0  0  0  0  0  0  0  0
   14.6613   -9.0400    0.0000 H   0  0  0  0  0  0  0  0  0  0  0  0
   14.9904   -8.4700    0.0000 H   0  0  0  0  0  0  0  0  0  0  0  0
   25.1146    2.5385    0.0000 H   0  0  0  0  0  0  0  0  0  0  0  0
   12.3923  -10.3500    0.0000 H   0  0  0  0  0  0  0  0  0  0  0  0
   12.9292  -12.0400    0.0000 H   0  0  0  0  0  0  0  0  0  0  0  0
   24.9409    1.9778    0.0000 H   0  0  0  0  0  0  0  0  0  0  0  0
   25.2135    1.2288    0.0000 H   0  0  0  0  0  0  0  0  0  0  0  0
   18.1254   -6.0400    0.0000 H   0  0  0  0  0  0  0  0  0  0  0  0
   23.6628    3.9511    0.0000 H   0  0  0  0  0  0  0  0  0  0  0  0
   16.3933   -8.2800    0.0000 H   0  0  0  0  0  0  0  0  0  0  0  0
   26.5260    4.8709    0.0000 H   0  0  0  0  0  0  0  0  0  0  0  0
   26.9299   -3.2636    0.0000 H   0  0  0  0  0  0  0  0  0  0  0  0
   27.6789   -2.9910    0.0000 H   0  0  0  0  0  0  0  0  0  0  0  0
   10.6603  -13.3500    0.0000 H   0  0  0  0  0  0  0  0  0  0  0  0
   24.3480   -7.5612    0.0000 H   0  0  0  0  0  0  0  0  0  0  0  0
   24.0936    5.2998    0.0000 H   0  0  0  0  0  0  0  0  0  0  0  0
   27.2475    3.2002    0.0000 H   0  0  0  0  0  0  0  0  0  0  0  0
   19.5284   -5.8500    0.0000 H   0  0  0  0  0  0  0  0  0  0  0  0
   12.9292   -9.0400    0.0000 H   0  0  0  0  0  0  0  0  0  0  0  0
   12.6002  -14.4700    0.0000 H   0  0  0  0  0  0  0  0  0  0  0  0
   14.6613   -8.2800    0.0000 H   0  0  0  0  0  0  0  0  0  0  0  0
   26.9182    4.6879    0.0000 H   0  0  0  0  0  0  0  0  0  0  0  0
   22.4555   -2.5400    0.0000 H   0  0  0  0  0  0  0  0  0  0  0  0
   26.5194    5.1187    0.0000 H   0  0  0  0  0  0  0  0  0  0  0  0
   14.1244   -6.9700    0.0000 H   0  0  0  0  0  0  0  0  0  0  0  0
    9.4651  -12.0400    0.0000 H   0  0  0  0  0  0  0  0  0  0  0  0
    9.1361  -11.8500    0.0000 H   0  0  0  0  0  0  0  0  0  0  0  0
   25.2125    4.9887    0.0000 H   0  0  0  0  0  0  0  0  0  0  0  0
   27.1842   -4.1851    0.0000 H   0  0  0  0  0  0  0  0  0  0  0  0
   26.3871   -4.1851    0.0000 H   0  0  0  0  0  0  0  0  0  0  0  0
   23.2075    4.0120    0.0000 H   0  0  0  0  0  0  0  0  0  0  0  0
   16.0643   -5.8500    0.0000 H   0  0  0  0  0  0  0  0  0  0  0  0
    7.7331  -12.0400    0.0000 H   0  0  0  0  0  0  0  0  0  0  0  0
   22.5593    3.7022    0.0000 H   0  0  0  0  0  0  0  0  0  0  0  0
   22.2867    4.4512    0.0000 H   0  0  0  0  0  0  0  0  0  0  0  0
   16.0643  -11.8500    0.0000 H   0  0  0  0  0  0  0  0  0  0  0  0
   25.7265   -3.8560    0.0000 H   0  0  0  0  0  0  0  0  0  0  0  0
   26.5438    5.2019    0.0000 H   0  0  0  0  0  0  0  0  0  0  0  0
   16.3933  -12.0400    0.0000 H   0  0  0  0  0  0  0  0  0  0  0  0
    7.7331  -14.2800    0.0000 H   0  0  0  0  0  0  0  0  0  0  0  0
   20.7235   -5.5400    0.0000 H   0  0  0  0  0  0  0  0  0  0  0  0
   23.5770   -9.0524    0.0000 H   0  0  0  0  0  0  0  0  0  0  0  0
   23.9755   -9.7426    0.0000 H   0  0  0  0  0  0  0  0  0  0  0  0
   18.7794   -4.5774    0.0000 H   0  0  0  0  0  0  0  0  0  0  0  0
   18.3808   -5.2677    0.0000 H   0  0  0  0  0  0  0  0  0  0  0  0
    9.1361  -14.4700    0.0000 H   0  0  0  0  0  0  0  0  0  0  0  0
   11.4526  -15.0524    0.0000 H   0  0  0  0  0  0  0  0  0  0  0  0
   11.8512  -15.7426    0.0000 H   0  0  0  0  0  0  0  0  0  0  0  0
   22.9925   -9.4700    0.0000 H   0  0  0  0  0  0  0  0  0  0  0  0
   12.6002  -10.8500    0.0000 H   0  0  0  0  0  0  0  0  0  0  0  0
   16.9303  -13.3500    0.0000 H   0  0  0  0  0  0  0  0  0  0  0  0
   11.4526   -9.0524    0.0000 H   0  0  0  0  0  0  0  0  0  0  0  0
   11.8512   -9.7426    0.0000 H   0  0  0  0  0  0  0  0  0  0  0  0
   26.4566   -6.4700    0.0000 H   0  0  0  0  0  0  0  0  0  0  0  0
   16.0643  -14.4700    0.0000 H   0  0  0  0  0  0  0  0  0  0  0  0
   20.3884    2.9860    0.0000 H   0  0  0  0  0  0  0  0  0  0  0  0
   14.1244  -13.3500    0.0000 H   0  0  0  0  0  0  0  0  0  0  0  0
   19.5284   -9.4700    0.0000 H   0  0  0  0  0  0  0  0  0  0  0  0
   24.9245    5.5862    0.0000 H   0  0  0  0  0  0  0  0  0  0  0  0
   21.3219    0.6493    0.0000 H   0  0  0  0  0  0  0  0  0  0  0  0
   15.3153   -4.5774    0.0000 H   0  0  0  0  0  0  0  0  0  0  0  0
   14.9167   -5.2677    0.0000 H   0  0  0  0  0  0  0  0  0  0  0  0
   28.4043    0.0494    0.0000 H   0  0  0  0  0  0  0  0  0  0  0  0
   11.5263  -10.8500    0.0000 H   0  0  0  0  0  0  0  0  0  0  0  0
   17.2594   -5.5400    0.0000 H   0  0  0  0  0  0  0  0  0  0  0  0
   28.3954   -2.0226    0.0000 H   0  0  0  0  0  0  0  0  0  0  0  0
   10.3312  -14.7800    0.0000 H   0  0  0  0  0  0  0  0  0  0  0  0
   25.4976   -8.6970    0.0000 H   0  0  0  0  0  0  0  0  0  0  0  0
   24.7607    6.6067    0.0000 H   0  0  0  0  0  0  0  0  0  0  0  0
    9.1361  -10.8500    0.0000 H   0  0  0  0  0  0  0  0  0  0  0  0
   25.5912    7.1991    0.0000 H   0  0  0  0  0  0  0  0  0  0  0  0
   25.4528    6.4142    0.0000 H   0  0  0  0  0  0  0  0  0  0  0  0
    6.0010  -12.0400    0.0000 H   0  0  0  0  0  0  0  0  0  0  0  0
   13.2583   -7.8500    0.0000 H   0  0  0  0  0  0  0  0  0  0  0  0
   25.5905  -10.3500    0.0000 H   0  0  0  0  0  0  0  0  0  0  0  0
    8.8112  -15.7426    0.0000 H   0  0  0  0  0  0  0  0  0  0  0  0
    9.2097  -15.0524    0.0000 H   0  0  0  0  0  0  0  0  0  0  0  0
   12.3923  -16.3500    0.0000 H   0  0  0  0  0  0  0  0  0  0  0  0
   17.2594  -11.5400    0.0000 H   0  0  0  0  0  0  0  0  0  0  0  0
   25.0950    5.7937    0.0000 H   0  0  0  0  0  0  0  0  0  0  0  0
   24.8224    6.5426    0.0000 H   0  0  0  0  0  0  0  0  0  0  0  0
   13.7953   -5.5400    0.0000 H   0  0  0  0  0  0  0  0  0  0  0  0
    4.5981  -11.8500    0.0000 H   0  0  0  0  0  0  0  0  0  0  0  0
   24.3290    6.8605    0.0000 H   0  0  0  0  0  0  0  0  0  0  0  0
   12.0632  -16.5400    0.0000 H   0  0  0  0  0  0  0  0  0  0  0  0
   28.1886   -4.8500    0.0000 H   0  0  0  0  0  0  0  0  0  0  0  0
   19.3205   -3.9700    0.0000 H   0  0  0  0  0  0  0  0  0  0  0  0
   26.4566  -11.4700    0.0000 H   0  0  0  0  0  0  0  0  0  0  0  0
   21.3183    5.1676    0.0000 H   0  0  0  0  0  0  0  0  0  0  0  0
   13.5832  -13.5774    0.0000 H   0  0  0  0  0  0  0  0  0  0  0  0
   13.1847  -14.2677    0.0000 H   0  0  0  0  0  0  0  0  0  0  0  0
    4.2690  -12.0400    0.0000 H   0  0  0  0  0  0  0  0  0  0  0  0
   23.2816    5.9079    0.0000 H   0  0  0  0  0  0  0  0  0  0  0  0
   25.9196  -12.7800    0.0000 H   0  0  0  0  0  0  0  0  0  0  0  0
    5.6720  -14.4700    0.0000 H   0  0  0  0  0  0  0  0  0  0  0  0
    4.2690  -14.2800    0.0000 H   0  0  0  0  0  0  0  0  0  0  0  0
   27.7151    6.0858    0.0000 H   0  0  0  0  0  0  0  0  0  0  0  0
   11.5263  -17.8500    0.0000 H   0  0  0  0  0  0  0  0  0  0  0  0
   23.4514  -11.7350    0.0000 H   0  0  0  0  0  0  0  0  0  0  0  0
   25.5905  -12.9700    0.0000 H   0  0  0  0  0  0  0  0  0  0  0  0
   27.5689    2.6134    0.0000 H   0  0  0  0  0  0  0  0  0  0  0  0
    6.8671  -14.7800    0.0000 H   0  0  0  0  0  0  0  0  0  0  0  0
   20.7235   -3.7800    0.0000 H   0  0  0  0  0  0  0  0  0  0  0  0
   21.9329    6.3387    0.0000 H   0  0  0  0  0  0  0  0  0  0  0  0
   12.3923  -18.9700    0.0000 H   0  0  0  0  0  0  0  0  0  0  0  0
   14.3322  -17.8500    0.0000 H   0  0  0  0  0  0  0  0  0  0  0  0
   22.3219    8.5447    0.0000 H   0  0  0  0  0  0  0  0  0  0  0  0
   25.2436   -5.2571    0.0000 H   0  0  0  0  0  0  0  0  0  0  0  0
   17.2594  -14.7800    0.0000 H   0  0  0  0  0  0  0  0  0  0  0  0
   11.5263   -7.8500    0.0000 H   0  0  0  0  0  0  0  0  0  0  0  0
   20.7235   -1.5400    0.0000 H   0  0  0  0  0  0  0  0  0  0  0  0
   22.6790    8.6746    0.0000 H   0  0  0  0  0  0  0  0  0  0  0  0
   14.9904  -15.4700    0.0000 H   0  0  0  0  0  0  0  0  0  0  0  0
   19.3205   -1.3500    0.0000 H   0  0  0  0  0  0  0  0  0  0  0  0
   18.4545   -2.4700    0.0000 H   0  0  0  0  0  0  0  0  0  0  0  0
   26.9368    5.8416    0.0000 H   0  0  0  0  0  0  0  0  0  0  0  0
   27.6271    6.2401    0.0000 H   0  0  0  0  0  0  0  0  0  0  0  0
   22.7846  -12.9700    0.0000 H   0  0  0  0  0  0  0  0  0  0  0  0
   16.3933   -4.0400    0.0000 H   0  0  0  0  0  0  0  0  0  0  0  0
    5.3471  -15.7426    0.0000 H   0  0  0  0  0  0  0  0  0  0  0  0
    5.7456  -15.0524    0.0000 H   0  0  0  0  0  0  0  0  0  0  0  0
   11.8172   -9.6600    0.0000 H   0  0  0  0  0  0  0  0  0  0  0  0
   11.1972   -9.0400    0.0000 H   0  0  0  0  0  0  0  0  0  0  0  0
   10.5772   -9.6600    0.0000 H   0  0  0  0  0  0  0  0  0  0  0  0
   29.3385    6.1447    0.0000 H   0  0  0  0  0  0  0  0  0  0  0  0
   28.5536    6.2831    0.0000 H   0  0  0  0  0  0  0  0  0  0  0  0
   11.1972  -16.0400    0.0000 H   0  0  0  0  0  0  0  0  0  0  0  0
   26.4205    8.0728    0.0000 H   0  0  0  0  0  0  0  0  0  0  0  0
    7.7331  -16.2800    0.0000 H   0  0  0  0  0  0  0  0  0  0  0  0
   27.8545    7.8551    0.0000 H   0  0  0  0  0  0  0  0  0  0  0  0
   15.2719  -18.7677    0.0000 H   0  0  0  0  0  0  0  0  0  0  0  0
   14.8733  -18.0774    0.0000 H   0  0  0  0  0  0  0  0  0  0  0  0
    4.5981  -10.8500    0.0000 H   0  0  0  0  0  0  0  0  0  0  0  0
   30.1046    4.7049    0.0000 H   0  0  0  0  0  0  0  0  0  0  0  0
   20.8656    8.3648    0.0000 H   0  0  0  0  0  0  0  0  0  0  0  0
   26.7856  -10.0400    0.0000 H   0  0  0  0  0  0  0  0  0  0  0  0
   17.5148   -1.5524    0.0000 H   0  0  0  0  0  0  0  0  0  0  0  0
   17.9133   -2.2426    0.0000 H   0  0  0  0  0  0  0  0  0  0  0  0
   23.7819    6.4920    0.0000 H   0  0  0  0  0  0  0  0  0  0  0  0
   14.3322  -15.4700    0.0000 H   0  0  0  0  0  0  0  0  0  0  0  0
    8.3531   -9.6600    0.0000 H   0  0  0  0  0  0  0  0  0  0  0  0
    7.7331   -9.0400    0.0000 H   0  0  0  0  0  0  0  0  0  0  0  0
    7.1131   -9.6600    0.0000 H   0  0  0  0  0  0  0  0  0  0  0  0
    2.8660  -12.4700    0.0000 H   0  0  0  0  0  0  0  0  0  0  0  0
   23.1080    4.9231    0.0000 H   0  0  0  0  0  0  0  0  0  0  0  0
   27.3226  -12.3500    0.0000 H   0  0  0  0  0  0  0  0  0  0  0  0
    2.8660  -13.8500    0.0000 H   0  0  0  0  0  0  0  0  0  0  0  0
   11.1972  -19.2800    0.0000 H   0  0  0  0  0  0  0  0  0  0  0  0
   29.4469    1.6896    0.0000 H   0  0  0  0  0  0  0  0  0  0  0  0
   28.6738    0.9165    0.0000 H   0  0  0  0  0  0  0  0  0  0  0  0
   23.5336  -14.2426    0.0000 H   0  0  0  0  0  0  0  0  0  0  0  0
   23.9321  -13.5524    0.0000 H   0  0  0  0  0  0  0  0  0  0  0  0
   21.5895   -4.2800    0.0000 H   0  0  0  0  0  0  0  0  0  0  0  0
   12.3923  -19.9700    0.0000 H   0  0  0  0  0  0  0  0  0  0  0  0
   19.3014  -12.6970    0.0000 H   0  0  0  0  0  0  0  0  0  0  0  0
   19.5284  -11.8500    0.0000 H   0  0  0  0  0  0  0  0  0  0  0  0
   18.6814  -11.6231    0.0000 H   0  0  0  0  0  0  0  0  0  0  0  0
   26.5695    8.5828    0.0000 H   0  0  0  0  0  0  0  0  0  0  0  0
   26.5695    7.7857    0.0000 H   0  0  0  0  0  0  0  0  0  0  0  0
   21.5895   -1.0400    0.0000 H   0  0  0  0  0  0  0  0  0  0  0  0
   23.4338    6.7702    0.0000 H   0  0  0  0  0  0  0  0  0  0  0  0
   23.5722    7.5551    0.0000 H   0  0  0  0  0  0  0  0  0  0  0  0
    3.7321  -16.3500    0.0000 H   0  0  0  0  0  0  0  0  0  0  0  0
   28.8733    4.3307    0.0000 H   0  0  0  0  0  0  0  0  0  0  0  0
   29.1460    3.5817    0.0000 H   0  0  0  0  0  0  0  0  0  0  0  0
   20.3944   -0.3500    0.0000 H   0  0  0  0  0  0  0  0  0  0  0  0
    3.4030  -16.5400    0.0000 H   0  0  0  0  0  0  0  0  0  0  0  0
   21.9186  -12.4700    0.0000 H   0  0  0  0  0  0  0  0  0  0  0  0
   28.0194    8.6517    0.0000 H   0  0  0  0  0  0  0  0  0  0  0  0
   28.0194    9.4488    0.0000 H   0  0  0  0  0  0  0  0  0  0  0  0
   28.1886   -6.4700    0.0000 H   0  0  0  0  0  0  0  0  0  0  0  0
    3.4030  -18.7800    0.0000 H   0  0  0  0  0  0  0  0  0  0  0  0
   30.8046    3.2638    0.0000 H   0  0  0  0  0  0  0  0  0  0  0  0
   30.5320    4.0127    0.0000 H   0  0  0  0  0  0  0  0  0  0  0  0
    4.8059  -18.9700    0.0000 H   0  0  0  0  0  0  0  0  0  0  0  0
    5.6720  -17.8500    0.0000 H   0  0  0  0  0  0  0  0  0  0  0  0
   15.1982  -19.9700    0.0000 H   0  0  0  0  0  0  0  0  0  0  0  0
   22.2948    8.6598    0.0000 H   0  0  0  0  0  0  0  0  0  0  0  0
   22.1563    7.8748    0.0000 H   0  0  0  0  0  0  0  0  0  0  0  0
   20.2732   10.4165    0.0000 H   0  0  0  0  0  0  0  0  0  0  0  0
   20.5458    9.6675    0.0000 H   0  0  0  0  0  0  0  0  0  0  0  0
   28.8683   -7.3140    0.0000 H   0  0  0  0  0  0  0  0  0  0  0  0
   28.1780   -6.9155    0.0000 H   0  0  0  0  0  0  0  0  0  0  0  0
   26.5695   10.3148    0.0000 H   0  0  0  0  0  0  0  0  0  0  0  0
   26.5695    9.5178    0.0000 H   0  0  0  0  0  0  0  0  0  0  0  0
   17.5885   -0.3500    0.0000 H   0  0  0  0  0  0  0  0  0  0  0  0
    9.7751  -16.1231    0.0000 H   0  0  0  0  0  0  0  0  0  0  0  0
    8.9282  -16.3500    0.0000 H   0  0  0  0  0  0  0  0  0  0  0  0
    9.1551  -17.1970    0.0000 H   0  0  0  0  0  0  0  0  0  0  0  0
   18.9202    6.5095    0.0000 H   0  0  0  0  0  0  0  0  0  0  0  0
   19.7052    6.3711    0.0000 H   0  0  0  0  0  0  0  0  0  0  0  0
   29.4657    2.7031    0.0000 H   0  0  0  0  0  0  0  0  0  0  0  0
   29.7384    1.9541    0.0000 H   0  0  0  0  0  0  0  0  0  0  0  0
   22.4555  -14.7800    0.0000 H   0  0  0  0  0  0  0  0  0  0  0  0
   21.1371   11.7998    0.0000 H   0  0  0  0  0  0  0  0  0  0  0  0
    6.6116  -18.7677    0.0000 H   0  0  0  0  0  0  0  0  0  0  0  0
    6.2131  -18.0774    0.0000 H   0  0  0  0  0  0  0  0  0  0  0  0
   27.6521   11.3929    0.0000 H   0  0  0  0  0  0  0  0  0  0  0  0
   26.9619   10.9944    0.0000 H   0  0  0  0  0  0  0  0  0  0  0  0
   18.1542    7.9493    0.0000 H   0  0  0  0  0  0  0  0  0  0  0  0
   30.3394    1.4497    0.0000 H   0  0  0  0  0  0  0  0  0  0  0  0
   31.1244    1.3113    0.0000 H   0  0  0  0  0  0  0  0  0  0  0  0
   28.2030   -8.6041    0.0000 H   0  0  0  0  0  0  0  0  0  0  0  0
   28.8933   -9.0027    0.0000 H   0  0  0  0  0  0  0  0  0  0  0  0
    2.0000  -16.9700    0.0000 H   0  0  0  0  0  0  0  0  0  0  0  0
   25.7296  -15.5630    0.0000 H   0  0  0  0  0  0  0  0  0  0  0  0
   26.7856  -15.2800    0.0000 H   0  0  0  0  0  0  0  0  0  0  0  0
    2.5369  -19.2800    0.0000 H   0  0  0  0  0  0  0  0  0  0  0  0
   19.6808   12.0441    0.0000 H   0  0  0  0  0  0  0  0  0  0  0  0
   19.9534   11.2951    0.0000 H   0  0  0  0  0  0  0  0  0  0  0  0
   23.9467    8.8432    0.0000 H   0  0  0  0  0  0  0  0  0  0  0  0
   23.1240    9.5335    0.0000 H   0  0  0  0  0  0  0  0  0  0  0  0
   29.9368    7.5737    0.0000 H   0  0  0  0  0  0  0  0  0  0  0  0
   30.6271    7.9722    0.0000 H   0  0  0  0  0  0  0  0  0  0  0  0
    3.7321  -19.9700    0.0000 H   0  0  0  0  0  0  0  0  0  0  0  0
   28.4368   10.1717    0.0000 H   0  0  0  0  0  0  0  0  0  0  0  0
   29.1271   10.5703    0.0000 H   0  0  0  0  0  0  0  0  0  0  0  0
   19.3854    8.3236    0.0000 H   0  0  0  0  0  0  0  0  0  0  0  0
   19.1128    9.0725    0.0000 H   0  0  0  0  0  0  0  0  0  0  0  0
   25.3146   10.5555    0.0000 H   0  0  0  0  0  0  0  0  0  0  0  0
   24.3238   11.0176    0.0000 H   0  0  0  0  0  0  0  0  0  0  0  0
   32.7500    5.5432    0.0000 H   0  0  0  0  0  0  0  0  0  0  0  0
   31.9650    5.6816    0.0000 H   0  0  0  0  0  0  0  0  0  0  0  0
   32.2290    2.5888    0.0000 H   0  0  0  0  0  0  0  0  0  0  0  0
   31.4441    2.7272    0.0000 H   0  0  0  0  0  0  0  0  0  0  0  0
   21.0197   12.6048    0.0000 H   0  0  0  0  0  0  0  0  0  0  0  0
   20.7471   13.3538    0.0000 H   0  0  0  0  0  0  0  0  0  0  0  0
   30.6521    9.6608    0.0000 H   0  0  0  0  0  0  0  0  0  0  0  0
   29.9619    9.2623    0.0000 H   0  0  0  0  0  0  0  0  0  0  0  0
   29.1521   12.2589    0.0000 H   0  0  0  0  0  0  0  0  0  0  0  0
   28.4619   11.8604    0.0000 H   0  0  0  0  0  0  0  0  0  0  0  0
   17.4541    9.3904    0.0000 H   0  0  0  0  0  0  0  0  0  0  0  0
   17.7267    8.6415    0.0000 H   0  0  0  0  0  0  0  0  0  0  0  0
   32.5661    4.1033    0.0000 H   0  0  0  0  0  0  0  0  0  0  0  0
   33.3511    3.9649    0.0000 H   0  0  0  0  0  0  0  0  0  0  0  0
   32.0452    1.1489    0.0000 H   0  0  0  0  0  0  0  0  0  0  0  0
   32.8301    1.0105    0.0000 H   0  0  0  0  0  0  0  0  0  0  0  0
   22.0768   12.1419    0.0000 H   0  0  0  0  0  0  0  0  0  0  0  0
   30.0956   -8.9290    0.0000 H   0  0  0  0  0  0  0  0  0  0  0  0
   30.0956   -7.8551    0.0000 H   0  0  0  0  0  0  0  0  0  0  0  0
    6.5380  -19.9700    0.0000 H   0  0  0  0  0  0  0  0  0  0  0  0
   17.2145    7.6073    0.0000 H   0  0  0  0  0  0  0  0  0  0  0  0
   19.0884   13.6717    0.0000 H   0  0  0  0  0  0  0  0  0  0  0  0
   19.3610   12.9227    0.0000 H   0  0  0  0  0  0  0  0  0  0  0  0
   31.4368    8.4397    0.0000 H   0  0  0  0  0  0  0  0  0  0  0  0
   32.1271    8.8382    0.0000 H   0  0  0  0  0  0  0  0  0  0  0  0
   29.9368   11.0378    0.0000 H   0  0  0  0  0  0  0  0  0  0  0  0
   30.6271   11.4363    0.0000 H   0  0  0  0  0  0  0  0  0  0  0  0
   18.7930    9.9512    0.0000 H   0  0  0  0  0  0  0  0  0  0  0  0
   18.5204   10.7001    0.0000 H   0  0  0  0  0  0  0  0  0  0  0  0
   34.4557    5.2424    0.0000 H   0  0  0  0  0  0  0  0  0  0  0  0
   33.6708    5.3808    0.0000 H   0  0  0  0  0  0  0  0  0  0  0  0
   33.9348    2.2880    0.0000 H   0  0  0  0  0  0  0  0  0  0  0  0
   33.1498    2.4264    0.0000 H   0  0  0  0  0  0  0  0  0  0  0  0
   20.4273   14.2324    0.0000 H   0  0  0  0  0  0  0  0  0  0  0  0
   20.1547   14.9814    0.0000 H   0  0  0  0  0  0  0  0  0  0  0  0
   32.1521   10.5269    0.0000 H   0  0  0  0  0  0  0  0  0  0  0  0
   31.4619   10.1283    0.0000 H   0  0  0  0  0  0  0  0  0  0  0  0
   30.6521   13.1249    0.0000 H   0  0  0  0  0  0  0  0  0  0  0  0
   29.9619   12.7264    0.0000 H   0  0  0  0  0  0  0  0  0  0  0  0
   16.8617   11.0180    0.0000 H   0  0  0  0  0  0  0  0  0  0  0  0
   17.1343   10.2690    0.0000 H   0  0  0  0  0  0  0  0  0  0  0  0
   34.2719    3.8026    0.0000 H   0  0  0  0  0  0  0  0  0  0  0  0
   35.0568    3.6642    0.0000 H   0  0  0  0  0  0  0  0  0  0  0  0
   33.7509    0.8481    0.0000 H   0  0  0  0  0  0  0  0  0  0  0  0
   34.5359    0.7097    0.0000 H   0  0  0  0  0  0  0  0  0  0  0  0
   18.4960   15.2993    0.0000 H   0  0  0  0  0  0  0  0  0  0  0  0
   18.7686   14.5503    0.0000 H   0  0  0  0  0  0  0  0  0  0  0  0
   32.9368    9.3057    0.0000 H   0  0  0  0  0  0  0  0  0  0  0  0
   33.6271    9.7042    0.0000 H   0  0  0  0  0  0  0  0  0  0  0  0
   18.2006   11.5787    0.0000 H   0  0  0  0  0  0  0  0  0  0  0  0
   17.9280   12.3277    0.0000 H   0  0  0  0  0  0  0  0  0  0  0  0
   31.4368   11.9038    0.0000 H   0  0  0  0  0  0  0  0  0  0  0  0
   32.1271   12.3023    0.0000 H   0  0  0  0  0  0  0  0  0  0  0  0
   36.1615    4.9417    0.0000 H   0  0  0  0  0  0  0  0  0  0  0  0
   35.3765    5.0801    0.0000 H   0  0  0  0  0  0  0  0  0  0  0  0
   35.6405    1.9872    0.0000 H   0  0  0  0  0  0  0  0  0  0  0  0
   34.8556    2.1256    0.0000 H   0  0  0  0  0  0  0  0  0  0  0  0
   19.8349   15.8600    0.0000 H   0  0  0  0  0  0  0  0  0  0  0  0
   19.5623   16.6090    0.0000 H   0  0  0  0  0  0  0  0  0  0  0  0
   33.6521   11.3929    0.0000 H   0  0  0  0  0  0  0  0  0  0  0  0
   32.9619   10.9944    0.0000 H   0  0  0  0  0  0  0  0  0  0  0  0
   17.3269   12.8321    0.0000 H   0  0  0  0  0  0  0  0  0  0  0  0
   16.5419   12.9705    0.0000 H   0  0  0  0  0  0  0  0  0  0  0  0
   35.9776    3.5018    0.0000 H   0  0  0  0  0  0  0  0  0  0  0  0
   36.7626    3.3634    0.0000 H   0  0  0  0  0  0  0  0  0  0  0  0
   32.1521   13.9910    0.0000 H   0  0  0  0  0  0  0  0  0  0  0  0
   31.4619   13.5924    0.0000 H   0  0  0  0  0  0  0  0  0  0  0  0
   35.4567    0.5474    0.0000 H   0  0  0  0  0  0  0  0  0  0  0  0
   36.2416    0.4090    0.0000 H   0  0  0  0  0  0  0  0  0  0  0  0
   17.9036   16.9269    0.0000 H   0  0  0  0  0  0  0  0  0  0  0  0
   18.1762   16.1779    0.0000 H   0  0  0  0  0  0  0  0  0  0  0  0
   34.4368   10.1717    0.0000 H   0  0  0  0  0  0  0  0  0  0  0  0
   35.1271   10.5703    0.0000 H   0  0  0  0  0  0  0  0  0  0  0  0
   15.4373   11.6930    0.0000 H   0  0  0  0  0  0  0  0  0  0  0  0
   16.2223   11.5546    0.0000 H   0  0  0  0  0  0  0  0  0  0  0  0
   37.8672    4.6409    0.0000 H   0  0  0  0  0  0  0  0  0  0  0  0
   37.0822    4.7793    0.0000 H   0  0  0  0  0  0  0  0  0  0  0  0
   19.2425   17.4876    0.0000 H   0  0  0  0  0  0  0  0  0  0  0  0
   18.9699   18.2366    0.0000 H   0  0  0  0  0  0  0  0  0  0  0  0
   35.1521   12.2589    0.0000 H   0  0  0  0  0  0  0  0  0  0  0  0
   34.4619   11.8604    0.0000 H   0  0  0  0  0  0  0  0  0  0  0  0
   33.0445   12.7604    0.0000 H   0  0  0  0  0  0  0  0  0  0  0  0
   33.6645   13.3804    0.0000 H   0  0  0  0  0  0  0  0  0  0  0  0
   33.0445   14.0004    0.0000 H   0  0  0  0  0  0  0  0  0  0  0  0
   15.6212   13.1329    0.0000 H   0  0  0  0  0  0  0  0  0  0  0  0
   14.8362   13.2713    0.0000 H   0  0  0  0  0  0  0  0  0  0  0  0
   37.6833    3.2010    0.0000 H   0  0  0  0  0  0  0  0  0  0  0  0
   38.4683    3.0626    0.0000 H   0  0  0  0  0  0  0  0  0  0  0  0
   37.0834    0.7053    0.0000 H   0  0  0  0  0  0  0  0  0  0  0  0
   37.4539    1.5000    0.0000 H   0  0  0  0  0  0  0  0  0  0  0  0
   36.6592    1.8705    0.0000 H   0  0  0  0  0  0  0  0  0  0  0  0
   17.3112   18.5545    0.0000 H   0  0  0  0  0  0  0  0  0  0  0  0
   17.5838   17.8055    0.0000 H   0  0  0  0  0  0  0  0  0  0  0  0
   35.9368   11.0378    0.0000 H   0  0  0  0  0  0  0  0  0  0  0  0
   36.6271   11.4363    0.0000 H   0  0  0  0  0  0  0  0  0  0  0  0
   39.5729    4.3401    0.0000 H   0  0  0  0  0  0  0  0  0  0  0  0
   38.7880    4.4785    0.0000 H   0  0  0  0  0  0  0  0  0  0  0  0
   13.7316   11.9938    0.0000 H   0  0  0  0  0  0  0  0  0  0  0  0
   14.5165   11.8554    0.0000 H   0  0  0  0  0  0  0  0  0  0  0  0
   18.6501   19.1152    0.0000 H   0  0  0  0  0  0  0  0  0  0  0  0
   18.3775   19.8642    0.0000 H   0  0  0  0  0  0  0  0  0  0  0  0
   39.3891    2.9003    0.0000 H   0  0  0  0  0  0  0  0  0  0  0  0
   40.1740    2.7619    0.0000 H   0  0  0  0  0  0  0  0  0  0  0  0
   36.6521   13.1249    0.0000 H   0  0  0  0  0  0  0  0  0  0  0  0
   35.9619   12.7264    0.0000 H   0  0  0  0  0  0  0  0  0  0  0  0
   13.9154   13.4336    0.0000 H   0  0  0  0  0  0  0  0  0  0  0  0
   13.1305   13.5721    0.0000 H   0  0  0  0  0  0  0  0  0  0  0  0
   41.2787    4.0394    0.0000 H   0  0  0  0  0  0  0  0  0  0  0  0
   40.4937    4.1778    0.0000 H   0  0  0  0  0  0  0  0  0  0  0  0
   17.7000   20.4450    0.0000 H   0  0  0  0  0  0  0  0  0  0  0  0
   16.8265   20.3686    0.0000 H   0  0  0  0  0  0  0  0  0  0  0  0
   16.9029   19.4951    0.0000 H   0  0  0  0  0  0  0  0  0  0  0  0
   37.5445   11.8944    0.0000 H   0  0  0  0  0  0  0  0  0  0  0  0
   38.1645   12.5144    0.0000 H   0  0  0  0  0  0  0  0  0  0  0  0
   37.5445   13.1344    0.0000 H   0  0  0  0  0  0  0  0  0  0  0  0
   12.2887   13.2757    0.0000 H   0  0  0  0  0  0  0  0  0  0  0  0
   11.9182   12.4810    0.0000 H   0  0  0  0  0  0  0  0  0  0  0  0
   12.7128   12.1105    0.0000 H   0  0  0  0  0  0  0  0  0  0  0  0
   41.0948    2.5995    0.0000 H   0  0  0  0  0  0  0  0  0  0  0  0
   41.8798    2.4611    0.0000 H   0  0  0  0  0  0  0  0  0  0  0  0
   42.7215    2.7574    0.0000 H   0  0  0  0  0  0  0  0  0  0  0  0
   43.0921    3.5521    0.0000 H   0  0  0  0  0  0  0  0  0  0  0  0
   42.2974    3.9227    0.0000 H   0  0  0  0  0  0  0  0  0  0  0  0
  1 17  1  0  0  0  0
  1 62  1  0  0  0  0
  1 65  1  0  0  0  0
  1 73  2  0  0  0  0
  2 37  1  0  0  0  0
  2 79  1  0  0  0  0
  2 83  1  0  0  0  0
  2 95  2  0  0  0  0
  3 41  1  0  0  0  0
  3 92  1  0  0  0  0
  3 93  1  0  0  0  0
  3 97  2  0  0  0  0
  4 62  1  0  0  0  0
  4104  1  0  0  0  0
  4107  1  0  0  0  0
  4110  2  0  0  0  0
  5 82  1  0  0  0  0
  5118  1  0  0  0  0
  5119  1  0  0  0  0
  5121  2  0  0  0  0
  6 98  1  0  0  0  0
  6124  1  0  0  0  0
  6125  1  0  0  0  0
  6127  2  0  0  0  0
142  7  1  6  0  0  0
145  7  1  1  0  0  0
141  8  1  1  0  0  0
  8148  1  0  0  0  0
  9143  1  0  0  0  0
  9146  1  0  0  0  0
 10148  1  0  0  0  0
 10153  1  0  0  0  0
 11145  1  0  0  0  0
 11155  1  0  0  0  0
147 12  1  6  0  0  0
 12158  1  0  0  0  0
151 13  1  6  0  0  0
162 13  1  6  0  0  0
146 14  1  1  0  0  0
 14180  1  0  0  0  0
 15158  1  0  0  0  0
 15161  1  0  0  0  0
157 16  1  6  0  0  0
 16168  1  0  0  0  0
150 17  1  1  0  0  0
149 18  1  6  0  0  0
 18406  1  0  0  0  0
164 19  1  1  0  0  0
179 19  1  6  0  0  0
 20162  1  0  0  0  0
 20184  1  0  0  0  0
 21173  1  0  0  0  0
174 21  1  6  0  0  0
167 22  1  1  0  0  0
183 22  1  6  0  0  0
154 23  1  1  0  0  0
 23414  1  0  0  0  0
 24168  1  0  0  0  0
 24190  1  0  0  0  0
 25173  1  0  0  0  0
 25191  1  0  0  0  0
 26179  1  0  0  0  0
 26192  1  0  0  0  0
165 27  1  6  0  0  0
204 27  1  1  0  0  0
156 28  1  6  0  0  0
 28420  1  0  0  0  0
170 29  1  6  0  0  0
197 29  1  6  0  0  0
 30176  1  0  0  0  0
 30199  1  0  0  0  0
159 31  1  6  0  0  0
 31424  1  0  0  0  0
 32183  1  0  0  0  0
 32201  1  0  0  0  0
160 33  1  1  0  0  0
 33432  1  0  0  0  0
163 34  1  6  0  0  0
 34437  1  0  0  0  0
166 35  1  1  0  0  0
 35439  1  0  0  0  0
 36197  1  0  0  0  0
 36211  1  0  0  0  0
182 37  1  1  0  0  0
169 38  1  6  0  0  0
 38441  1  0  0  0  0
 39175  1  0  0  0  0
 39443  1  0  0  0  0
 40177  1  0  0  0  0
 40446  1  0  0  0  0
189 41  1  6  0  0  0
178 42  1  6  0  0  0
 42447  1  0  0  0  0
 43204  1  0  0  0  0
 43216  1  0  0  0  0
181 44  1  6  0  0  0
 44448  1  0  0  0  0
 45185  1  0  0  0  0
 45449  1  0  0  0  0
186 46  1  6  0  0  0
 46450  1  0  0  0  0
187 47  1  1  0  0  0
 47451  1  0  0  0  0
194 48  1  1  0  0  0
 48245  1  0  0  0  0
188 49  1  6  0  0  0
 49452  1  0  0  0  0
202 50  1  6  0  0  0
219 50  1  1  0  0  0
199 51  1  1  0  0  0
 51223  1  0  0  0  0
 52175  2  0  0  0  0
 53177  2  0  0  0  0
193 54  1  1  0  0  0
 54457  1  0  0  0  0
 55209  1  0  0  0  0
 55220  1  0  0  0  0
 56212  1  0  0  0  0
222 56  1  6  0  0  0
196 57  1  1  0  0  0
 57465  1  0  0  0  0
 58210  1  0  0  0  0
227 58  1  1  0  0  0
 59200  1  0  0  0  0
 59469  1  0  0  0  0
 60203  1  0  0  0  0
 60472  1  0  0  0  0
205 61  1  6  0  0  0
 61480  1  0  0  0  0
 63207  1  0  0  0  0
 63484  1  0  0  0  0
208 64  1  6  0  0  0
 64485  1  0  0  0  0
 65491  1  0  0  0  0
 66219  1  0  0  0  0
 66234  1  0  0  0  0
 67207  2  0  0  0  0
213 68  1  1  0  0  0
 68492  1  0  0  0  0
 69214  1  0  0  0  0
 69493  1  0  0  0  0
 70220  1  0  0  0  0
 70237  1  0  0  0  0
215 71  1  6  0  0  0
 71496  1  0  0  0  0
 72222  1  0  0  0  0
 72243  1  0  0  0  0
 74225  1  0  0  0  0
 74247  1  0  0  0  0
 75227  1  0  0  0  0
 75250  1  0  0  0  0
 76217  1  0  0  0  0
 76502  1  0  0  0  0
 77218  1  0  0  0  0
 77511  1  0  0  0  0
 78221  1  0  0  0  0
 78512  1  0  0  0  0
 79265  1  0  0  0  0
224 80  1  1  0  0  0
 80516  1  0  0  0  0
229 81  1  1  0  0  0
 81519  1  0  0  0  0
238 82  1  6  0  0  0
 83522  1  0  0  0  0
 84230  1  0  0  0  0
 84523  1  0  0  0  0
231 85  1  6  0  0  0
 85527  1  0  0  0  0
232 86  1  1  0  0  0
 86528  1  0  0  0  0
241 87  1  6  0  0  0
 87273  1  0  0  0  0
233 88  1  1  0  0  0
 88529  1  0  0  0  0
235 89  1  6  0  0  0
 89530  1  0  0  0  0
236 90  1  6  0  0  0
 90531  1  0  0  0  0
 91228  2  0  0  0  0
 92532  1  0  0  0  0
 93533  1  0  0  0  0
239 94  1  1  0  0  0
 94536  1  0  0  0  0
242 96  1  1  0  0  0
 96537  1  0  0  0  0
247 98  1  1  0  0  0
 99254  1  0  0  0  0
266 99  1  1  0  0  0
100240  2  0  0  0  0
246101  1  6  0  0  0
101543  1  0  0  0  0
249102  1  6  0  0  0
102549  1  0  0  0  0
103245  2  0  0  0  0
104279  1  0  0  0  0
105248  2  0  0  0  0
252106  1  6  0  0  0
106551  1  0  0  0  0
107554  1  0  0  0  0
108253  2  0  0  0  0
257109  1  1  0  0  0
109285  1  0  0  0  0
111258  1  0  0  0  0
111560  1  0  0  0  0
259112  1  6  0  0  0
112289  1  0  0  0  0
113266  1  0  0  0  0
113276  1  0  0  0  0
114260  1  0  0  0  0
114569  1  0  0  0  0
115262  1  0  0  0  0
115577  1  0  0  0  0
269116  1  1  0  0  0
116588  1  0  0  0  0
117268  2  0  0  0  0
118589  1  0  0  0  0
119590  1  0  0  0  0
272120  1  6  0  0  0
120591  1  0  0  0  0
122270  2  0  0  0  0
275123  1  6  0  0  0
123598  1  0  0  0  0
124603  1  0  0  0  0
125604  1  0  0  0  0
126273  2  0  0  0  0
284128  1  1  0  0  0
128621  1  0  0  0  0
129286  1  0  0  0  0
129624  1  0  0  0  0
288130  1  6  0  0  0
130625  1  0  0  0  0
131285  2  0  0  0  0
132289  2  0  0  0  0
171133  1  1  0  0  0
133228  1  0  0  0  0
133433  1  0  0  0  0
195134  1  6  0  0  0
134240  1  0  0  0  0
134442  1  0  0  0  0
198135  1  1  0  0  0
135248  1  0  0  0  0
135453  1  0  0  0  0
206136  1  6  0  0  0
136253  1  0  0  0  0
136462  1  0  0  0  0
226137  1  1  0  0  0
137268  1  0  0  0  0
137510  1  0  0  0  0
244138  1  1  0  0  0
138270  1  0  0  0  0
138518  1  0  0  0  0
139277  1  0  0  0  0
139594  1  0  0  0  0
139595  1  0  0  0  0
140291  1  0  0  0  0
140622  1  0  0  0  0
140623  1  0  0  0  0
141142  1  0  0  0  0
141143  1  0  0  0  0
141352  1  0  0  0  0
142144  1  0  0  0  0
142353  1  0  0  0  0
143156  1  0  0  0  0
143354  1  1  0  0  0
144146  1  0  0  0  0
144355  1  0  0  0  0
144356  1  0  0  0  0
145152  1  0  0  0  0
145175  1  0  0  0  0
146177  1  0  0  0  0
147149  1  0  0  0  0
147150  1  0  0  0  0
147357  1  0  0  0  0
148149  1  0  0  0  0
148358  1  0  0  0  0
149359  1  0  0  0  0
150153  1  0  0  0  0
150360  1  0  0  0  0
151152  1  0  0  0  0
151154  1  0  0  0  0
151361  1  0  0  0  0
152362  1  0  0  0  0
152363  1  0  0  0  0
153163  1  0  0  0  0
153364  1  1  0  0  0
154155  1  0  0  0  0
154365  1  0  0  0  0
155166  1  0  0  0  0
155366  1  1  0  0  0
156185  1  0  0  0  0
156367  1  0  0  0  0
157159  1  0  0  0  0
157160  1  0  0  0  0
157368  1  0  0  0  0
158159  1  0  0  0  0
158369  1  0  0  0  0
159370  1  0  0  0  0
160161  1  0  0  0  0
160371  1  0  0  0  0
161187  1  0  0  0  0
161372  1  1  0  0  0
162172  1  0  0  0  0
162207  1  0  0  0  0
163200  1  0  0  0  0
163373  1  0  0  0  0
164165  1  0  0  0  0
164178  1  0  0  0  0
164374  1  0  0  0  0
165173  1  0  0  0  0
165375  1  0  0  0  0
166203  1  0  0  0  0
166376  1  0  0  0  0
167169  1  0  0  0  0
167181  1  0  0  0  0
167377  1  0  0  0  0
168169  1  0  0  0  0
168378  1  0  0  0  0
169379  1  0  0  0  0
170171  1  0  0  0  0
170186  1  0  0  0  0
170380  1  0  0  0  0
171179  1  0  0  0  0
171381  1  0  0  0  0
172182  1  0  0  0  0
172382  1  0  0  0  0
172383  1  0  0  0  0
173384  1  0  0  0  0
174183  1  0  0  0  0
174193  1  0  0  0  0
174385  1  0  0  0  0
176180  1  1  0  0  0
176189  1  0  0  0  0
176386  1  0  0  0  0
178191  1  0  0  0  0
178387  1  0  0  0  0
179388  1  0  0  0  0
180389  1  0  0  0  0
180390  1  0  0  0  0
181190  1  0  0  0  0
181391  1  0  0  0  0
182188  1  0  0  0  0
182392  1  0  0  0  0
183393  1  0  0  0  0
184188  1  0  0  0  0
184205  1  0  0  0  0
184394  1  6  0  0  0
185395  1  0  0  0  0
185396  1  0  0  0  0
186192  1  0  0  0  0
186397  1  0  0  0  0
187209  1  0  0  0  0
187398  1  0  0  0  0
188399  1  0  0  0  0
189194  1  0  0  0  0
189400  1  0  0  0  0
190210  1  1  0  0  0
190401  1  0  0  0  0
191214  1  1  0  0  0
191402  1  0  0  0  0
192212  1  6  0  0  0
192403  1  0  0  0  0
193196  1  0  0  0  0
193404  1  0  0  0  0
194195  1  0  0  0  0
194405  1  0  0  0  0
195199  1  0  0  0  0
195407  1  0  0  0  0
196201  1  0  0  0  0
196408  1  0  0  0  0
197198  1  0  0  0  0
197409  1  0  0  0  0
198202  1  0  0  0  0
198410  1  0  0  0  0
199411  1  0  0  0  0
200412  1  0  0  0  0
200413  1  0  0  0  0
201217  1  1  0  0  0
201415  1  0  0  0  0
202208  1  0  0  0  0
202416  1  0  0  0  0
203417  1  0  0  0  0
203418  1  0  0  0  0
204206  1  0  0  0  0
204419  1  0  0  0  0
205218  1  0  0  0  0
205421  1  0  0  0  0
206213  1  0  0  0  0
206422  1  0  0  0  0
208211  1  0  0  0  0
208423  1  0  0  0  0
209425  1  0  0  0  0
209426  1  0  0  0  0
210427  1  0  0  0  0
210428  1  0  0  0  0
211221  1  6  0  0  0
211429  1  0  0  0  0
212430  1  0  0  0  0
212431  1  0  0  0  0
213215  1  0  0  0  0
213434  1  0  0  0  0
214435  1  0  0  0  0
214436  1  0  0  0  0
215216  1  0  0  0  0
215438  1  0  0  0  0
216230  1  1  0  0  0
216440  1  0  0  0  0
217444  1  0  0  0  0
217445  1  0  0  0  0
218454  1  0  0  0  0
218455  1  0  0  0  0
219224  1  0  0  0  0
219456  1  0  0  0  0
220229  1  0  0  0  0
220458  1  0  0  0  0
221459  1  0  0  0  0
221460  1  0  0  0  0
222226  1  0  0  0  0
222461  1  0  0  0  0
225223  1  6  0  0  0
223463  1  0  0  0  0
223464  1  0  0  0  0
224231  1  0  0  0  0
224466  1  0  0  0  0
225232  1  0  0  0  0
225467  1  0  0  0  0
226236  1  0  0  0  0
226468  1  0  0  0  0
227239  1  0  0  0  0
227470  1  0  0  0  0
228255  1  0  0  0  0
229233  1  0  0  0  0
229471  1  0  0  0  0
230473  1  0  0  0  0
230474  1  0  0  0  0
231235  1  0  0  0  0
231475  1  0  0  0  0
232241  1  0  0  0  0
232476  1  0  0  0  0
233238  1  0  0  0  0
233477  1  0  0  0  0
234235  1  0  0  0  0
234254  1  6  0  0  0
234478  1  0  0  0  0
235479  1  0  0  0  0
236242  1  0  0  0  0
236481  1  0  0  0  0
237238  1  0  0  0  0
237252  1  0  0  0  0
237482  1  6  0  0  0
238483  1  0  0  0  0
239246  1  0  0  0  0
239486  1  0  0  0  0
240251  1  0  0  0  0
241244  1  0  0  0  0
241487  1  0  0  0  0
242243  1  0  0  0  0
242488  1  0  0  0  0
243258  1  6  0  0  0
243489  1  0  0  0  0
244247  1  0  0  0  0
244490  1  0  0  0  0
245256  1  0  0  0  0
246249  1  0  0  0  0
246494  1  0  0  0  0
247495  1  0  0  0  0
248261  1  0  0  0  0
249250  1  0  0  0  0
249497  1  0  0  0  0
250260  1  6  0  0  0
250498  1  0  0  0  0
251257  1  0  0  0  0
251499  1  0  0  0  0
251500  1  0  0  0  0
252262  1  0  0  0  0
252501  1  0  0  0  0
253263  1  0  0  0  0
254503  1  0  0  0  0
254504  1  0  0  0  0
255505  1  0  0  0  0
255506  1  0  0  0  0
255507  1  0  0  0  0
256259  1  0  0  0  0
256508  1  0  0  0  0
256509  1  0  0  0  0
257264  1  0  0  0  0
257513  1  0  0  0  0
258514  1  0  0  0  0
258515  1  0  0  0  0
259267  1  0  0  0  0
259517  1  0  0  0  0
260520  1  0  0  0  0
260521  1  0  0  0  0
261524  1  0  0  0  0
261525  1  0  0  0  0
261526  1  0  0  0  0
262534  1  0  0  0  0
262535  1  0  0  0  0
263538  1  0  0  0  0
263539  1  0  0  0  0
263540  1  0  0  0  0
264271  1  0  0  0  0
264541  1  0  0  0  0
264542  1  0  0  0  0
265277  1  0  0  0  0
265544  1  0  0  0  0
265545  1  0  0  0  0
266269  1  0  0  0  0
266546  1  0  0  0  0
267274  1  0  0  0  0
267547  1  0  0  0  0
267548  1  0  0  0  0
268281  1  0  0  0  0
269272  1  0  0  0  0
269550  1  0  0  0  0
270278  1  0  0  0  0
271280  1  0  0  0  0
271552  1  0  0  0  0
271553  1  0  0  0  0
272275  1  0  0  0  0
272555  1  0  0  0  0
273282  1  0  0  0  0
274283  1  0  0  0  0
274556  1  0  0  0  0
274557  1  0  0  0  0
275276  1  0  0  0  0
275558  1  0  0  0  0
276286  1  6  0  0  0
276559  1  0  0  0  0
277561  1  0  0  0  0
277562  1  0  0  0  0
278284  1  0  0  0  0
278563  1  0  0  0  0
278564  1  0  0  0  0
279291  1  0  0  0  0
279565  1  0  0  0  0
279566  1  0  0  0  0
280287  1  0  0  0  0
280567  1  0  0  0  0
280568  1  0  0  0  0
281570  1  0  0  0  0
281571  1  0  0  0  0
281572  1  0  0  0  0
282288  1  0  0  0  0
282573  1  0  0  0  0
282574  1  0  0  0  0
283290  1  0  0  0  0
283575  1  0  0  0  0
283576  1  0  0  0  0
284292  1  0  0  0  0
284578  1  0  0  0  0
285293  1  0  0  0  0
286579  1  0  0  0  0
286580  1  0  0  0  0
287294  1  0  0  0  0
287581  1  0  0  0  0
287582  1  0  0  0  0
288295  1  0  0  0  0
288583  1  0  0  0  0
289296  1  0  0  0  0
290297  1  0  0  0  0
290584  1  0  0  0  0
290585  1  0  0  0  0
291586  1  0  0  0  0
291587  1  0  0  0  0
292298  1  0  0  0  0
292592  1  0  0  0  0
292593  1  0  0  0  0
293299  1  0  0  0  0
293596  1  0  0  0  0
293597  1  0  0  0  0
294300  1  0  0  0  0
294599  1  0  0  0  0
294600  1  0  0  0  0
295301  1  0  0  0  0
295601  1  0  0  0  0
295602  1  0  0  0  0
296302  1  0  0  0  0
296605  1  0  0  0  0
296606  1  0  0  0  0
297303  1  0  0  0  0
297607  1  0  0  0  0
297608  1  0  0  0  0
298304  1  0  0  0  0
298609  1  0  0  0  0
298610  1  0  0  0  0
299305  1  0  0  0  0
299611  1  0  0  0  0
299612  1  0  0  0  0
300306  1  0  0  0  0
300613  1  0  0  0  0
300614  1  0  0  0  0
301307  1  0  0  0  0
301615  1  0  0  0  0
301616  1  0  0  0  0
302308  1  0  0  0  0
302617  1  0  0  0  0
302618  1  0  0  0  0
303309  1  0  0  0  0
303619  1  0  0  0  0
303620  1  0  0  0  0
304310  1  0  0  0  0
304626  1  0  0  0  0
304627  1  0  0  0  0
305311  1  0  0  0  0
305628  1  0  0  0  0
305629  1  0  0  0  0
306312  1  0  0  0  0
306630  1  0  0  0  0
306631  1  0  0  0  0
307313  1  0  0  0  0
307632  1  0  0  0  0
307633  1  0  0  0  0
308314  1  0  0  0  0
308634  1  0  0  0  0
308635  1  0  0  0  0
309315  1  0  0  0  0
309636  1  0  0  0  0
309637  1  0  0  0  0
310316  1  0  0  0  0
310638  1  0  0  0  0
310639  1  0  0  0  0
311317  1  0  0  0  0
311640  1  0  0  0  0
311641  1  0  0  0  0
312319  1  0  0  0  0
312642  1  0  0  0  0
312643  1  0  0  0  0
313318  1  0  0  0  0
313644  1  0  0  0  0
313645  1  0  0  0  0
314320  1  0  0  0  0
314646  1  0  0  0  0
314647  1  0  0  0  0
315321  1  0  0  0  0
315648  1  0  0  0  0
315649  1  0  0  0  0
316322  1  0  0  0  0
316650  1  0  0  0  0
316651  1  0  0  0  0
317323  1  0  0  0  0
317652  1  0  0  0  0
317653  1  0  0  0  0
318324  1  0  0  0  0
318654  1  0  0  0  0
318655  1  0  0  0  0
319326  1  0  0  0  0
319656  1  0  0  0  0
319657  1  0  0  0  0
320325  1  0  0  0  0
320658  1  0  0  0  0
320659  1  0  0  0  0
321327  1  0  0  0  0
321660  1  0  0  0  0
321661  1  0  0  0  0
322328  1  0  0  0  0
322662  1  0  0  0  0
322663  1  0  0  0  0
323329  1  0  0  0  0
323664  1  0  0  0  0
323665  1  0  0  0  0
324330  1  0  0  0  0
324666  1  0  0  0  0
324667  1  0  0  0  0
325331  1  0  0  0  0
325668  1  0  0  0  0
325669  1  0  0  0  0
326334  1  0  0  0  0
326670  1  0  0  0  0
326671  1  0  0  0  0
327337  1  0  0  0  0
327672  1  0  0  0  0
327673  1  0  0  0  0
328332  1  0  0  0  0
328674  1  0  0  0  0
328675  1  0  0  0  0
329333  1  0  0  0  0
329676  1  0  0  0  0
329677  1  0  0  0  0
330335  1  0  0  0  0
330678  1  0  0  0  0
330679  1  0  0  0  0
331336  1  0  0  0  0
331680  1  0  0  0  0
331681  1  0  0  0  0
332338  1  0  0  0  0
332682  1  0  0  0  0
332683  1  0  0  0  0
333339  1  0  0  0  0
333684  1  0  0  0  0
333685  1  0  0  0  0
334686  1  0  0  0  0
334687  1  0  0  0  0
334688  1  0  0  0  0
335341  1  0  0  0  0
335689  1  0  0  0  0
335690  1  0  0  0  0
336340  1  0  0  0  0
336691  1  0  0  0  0
336692  1  0  0  0  0
337693  1  0  0  0  0
337694  1  0  0  0  0
337695  1  0  0  0  0
338342  1  0  0  0  0
338696  1  0  0  0  0
338697  1  0  0  0  0
339344  1  0  0  0  0
339698  1  0  0  0  0
339699  1  0  0  0  0
340343  1  0  0  0  0
340700  1  0  0  0  0
340701  1  0  0  0  0
341345  1  0  0  0  0
341702  1  0  0  0  0
341703  1  0  0  0  0
342347  1  0  0  0  0
342704  1  0  0  0  0
342705  1  0  0  0  0
343346  1  0  0  0  0
343706  1  0  0  0  0
343707  1  0  0  0  0
344348  1  0  0  0  0
344708  1  0  0  0  0
344709  1  0  0  0  0
345349  1  0  0  0  0
345710  1  0  0  0  0
345711  1  0  0  0  0
346350  1  0  0  0  0
346712  1  0  0  0  0
346713  1  0  0  0  0
347714  1  0  0  0  0
347715  1  0  0  0  0
347716  1  0  0  0  0
348717  1  0  0  0  0
348718  1  0  0  0  0
348719  1  0  0  0  0
349720  1  0  0  0  0
349721  1  0  0  0  0
349722  1  0  0  0  0
350351  1  0  0  0  0
350723  1  0  0  0  0
350724  1  0  0  0  0
351725  1  0  0  0  0
351726  1  0  0  0  0
351727  1  0  0  0  0
M  END
> <PUBCHEM_COMPOUND_CID>
53481793

> <PUBCHEM_COMPOUND_CANONICALIZED>
1

> <PUBCHEM_CACTVS_COMPLEXITY>
11000

> <PUBCHEM_CACTVS_HBOND_ACCEPTOR>
128

> <PUBCHEM_CACTVS_HBOND_DONOR>
68

> <PUBCHEM_CACTVS_ROTATABLE_BOND>
163

> <PUBCHEM_CACTVS_SUBSKEYS>
AAADcfB//gOAAAAAAAAAAAAAAAAAAAAAAAAkSJEiQAAAAAAAAAAAHgAQCCAACDzxgAcCCALABxAIQAGQGIIAAAAAAAAAAIFIAAATEBYAgAQnQAAHNgCXAAH6/K/AAAAAAAAAAAAAAAAAAAAAAAAAAAAAAA==

> <PUBCHEM_IUPAC_OPENEYE_NAME>
(2R,4R,5S,6R)-2-[(2R,4R,5S,6R)-5-[(3S,4R,5R,6R)-4-[(3S,4S,5R,6R)-4-[(3R,4S,5R,6R)-4-[(2R,3R,4S,5R,6R)-3-[(3R,4S,5R,6R)-4-[(2S,3R,4R,5R,6R)-3-acetamido-6-[[(2R,3R,4R,5S,6R)-3-acetamido-4,5-dihydroxy-6-(hydroxymethyl)tetrahydropyran-2-yl]oxymethyl]-4-[(2R,3R,4R,5R,6R)-3-acetamido-5-hydroxy-6-(hydroxymethyl)-4-[(2S,3R,4S,5R,6R)-3,4,5-trihydroxy-6-[[(2S,3R,4S,5R,6R)-3,4,5-trihydroxy-6-(hydroxymethyl)tetrahydropyran-2-yl]oxymethyl]tetrahydropyran-2-yl]oxy-tetrahydropyran-2-yl]oxy-5-hydroxy-tetrahydropyran-2-yl]oxy-3-[(2R,3R,4R,5S,6R)-3-acetamido-4,5-dihydroxy-6-(hydroxymethyl)tetrahydropyran-2-yl]oxy-5-hydroxy-6-(hydroxymethyl)tetrahydropyran-2-yl]oxy-4,5-dihydroxy-6-(hydroxymethyl)tetrahydropyran-2-yl]oxy-3,5-dihydroxy-6-[[(2S,3R,4S,5R,6R)-3,4,5-trihydroxy-6-(hydroxymethyl)tetrahydropyran-2-yl]oxymethyl]tetrahydropyran-2-yl]oxy-6-[(1S)-2-[(3S,4R,5S,6R)-6-[(1S)-1,2-dihydroxyethyl]-3,4-dihydroxy-5-phosphonooxy-tetrahydropyran-2-yl]oxy-1-hydroxy-ethyl]-3,5-dihydroxy-tetrahydropyran-2-yl]oxy-5-[[2-aminoethoxy(hydroxy)phosphoryl]oxy-hydroxy-phosphoryl]oxy-6-[(1S)-1,2-dihydroxyethyl]-3-hydroxy-tetrahydropyran-2-yl]oxy-2-carboxy-6-[(1S)-1,2-dihydroxyethyl]-2-[[(2R,3S,4R,5R,6R)-5-[[(3R)-3-dodecanoyloxytetradecanoyl]amino]-6-[[(2R,3S,4R,5R,6R)-3-hydroxy-5-[[(3R)-3-hydroxytetradecanoyl]amino]-4-[(3R)-3-hydroxytetradecanoyl]oxy-6-phosphonooxy-tetrahydropyran-2-yl]methoxy]-3-phosphonooxy-4-[(3R)-3-tetradecanoyloxytetradecanoyl]oxy-tetrahydropyran-2-yl]methoxy]tetrahydropyran-4-yl]oxy-4-[(2R,4R,5R,6R)-4-[2-aminoethoxy(hydroxy)phosphoryl]oxy-2-carboxy-6-[(1S)-1,2-dihydroxyethyl]-5-hydroxy-tetrahydropyran-2-yl]oxy-6-[(1S)-1,2-dihydroxyethyl]-5-hydroxy-tetrahydropyran-2-carboxylic acid

> <PUBCHEM_IUPAC_CAS_NAME>
(2R,4R,5S,6R)-2-[[(2R,4R,5S,6R)-5-[[(3S,4R,5R,6R)-4-[[(3S,4S,5R,6R)-4-[[(3R,4S,5R,6R)-4-[[(2R,3R,4S,5R,6R)-3-[[(3R,4S,5R,6R)-4-[[(2S,3R,4R,5R,6R)-3-acetamido-6-[[(2R,3R,4R,5S,6R)-3-acetamido-4,5-dihydroxy-6-(hydroxymethyl)-2-oxanyl]oxymethyl]-4-[[(2R,3R,4R,5R,6R)-3-acetamido-5-hydroxy-6-(hydroxymethyl)-4-[[(2S,3R,4S,5R,6R)-3,4,5-trihydroxy-6-[[(2S,3R,4S,5R,6R)-3,4,5-trihydroxy-6-(hydroxymethyl)-2-oxanyl]oxymethyl]-2-oxanyl]oxy]-2-oxanyl]oxy]-5-hydroxy-2-oxanyl]oxy]-3-[[(2R,3R,4R,5S,6R)-3-acetamido-4,5-dihydroxy-6-(hydroxymethyl)-2-oxanyl]oxy]-5-hydroxy-6-(hydroxymethyl)-2-oxanyl]oxy]-4,5-dihydroxy-6-(hydroxymethyl)-2-oxanyl]oxy]-3,5-dihydroxy-6-[[(2S,3R,4S,5R,6R)-3,4,5-trihydroxy-6-(hydroxymethyl)-2-oxanyl]oxymethyl]-2-oxanyl]oxy]-6-[(1S)-2-[[(3S,4R,5S,6R)-6-[(1S)-1,2-dihydroxyethyl]-3,4-dihydroxy-5-phosphonooxy-2-oxanyl]oxy]-1-hydroxyethyl]-3,5-dihydroxy-2-oxanyl]oxy]-5-[[2-aminoethoxy(hydroxy)phosphoryl]oxy-hydroxyphosphoryl]oxy-6-[(1S)-1,2-dihydroxyethyl]-3-hydroxy-2-oxanyl]oxy]-2-carboxy-6-[(1S)-1,2-dihydroxyethyl]-2-[[(2R,3S,4R,5R,6R)-6-[[(2R,3S,4R,5R,6R)-3-hydroxy-4-[(3R)-3-hydroxy-1-oxotetradecoxy]-5-[[(3R)-3-hydroxy-1-oxotetradecyl]amino]-6-phosphonooxy-2-oxanyl]methoxy]-5-[[(3R)-1-oxo-3-(1-oxododecoxy)tetradecyl]amino]-4-[(3R)-1-oxo-3-(1-oxotetradecoxy)tetradecoxy]-3-phosphonooxy-2-oxanyl]methoxy]-4-oxanyl]oxy]-4-[[(2R,4R,5R,6R)-4-[2-aminoethoxy(hydroxy)phosphoryl]oxy-2-carboxy-6-[(1S)-1,2-dihydroxyethyl]-5-hydroxy-2-oxanyl]oxy]-6-[(1S)-1,2-dihydroxyethyl]-5-hydroxy-2-oxanecarboxylic acid

> <PUBCHEM_IUPAC_NAME_MARKUP>
(2<I>R</I>,4<I>R</I>,5<I>S</I>,6<I>R</I>)-2-[(2<I>R</I>,4<I>R</I>,5<I>S</I>,6<I>R</I>)-5-[(3<I>S</I>,4<I>R</I>,5<I>R</I>,6<I>R</I>)-4-[(3<I>S</I>,4<I>S</I>,5<I>R</I>,6<I>R</I>)-4-[(3<I>R</I>,4<I>S</I>,5<I>R</I>,6<I>R</I>)-4-[(2<I>R</I>,3<I>R</I>,4<I>S</I>,5<I>R</I>,6<I>R</I>)-3-[(3<I>R</I>,4<I>S</I>,5<I>R</I>,6<I>R</I>)-4-[(2<I>S</I>,3<I>R</I>,4<I>R</I>,5<I>R</I>,6<I>R</I>)-3-acetamido-6-[[(2<I>R</I>,3<I>R</I>,4<I>R</I>,5<I>S</I>,6<I>R</I>)-3-acetamido-4,5-dihydroxy-6-(hydroxymethyl)oxan-2-yl]oxymethyl]-4-[(2<I>R</I>,3<I>R</I>,4<I>R</I>,5<I>R</I>,6<I>R</I>)-3-acetamido-5-hydroxy-6-(hydroxymethyl)-4-[(2<I>S</I>,3<I>R</I>,4<I>S</I>,5<I>R</I>,6<I>R</I>)-3,4,5-trihydroxy-6-[[(2<I>S</I>,3<I>R</I>,4<I>S</I>,5<I>R</I>,6<I>R</I>)-3,4,5-trihydroxy-6-(hydroxymethyl)oxan-2-yl]oxymethyl]oxan-2-yl]oxyoxan-2-yl]oxy-5-hydroxyoxan-2-yl]oxy-3-[(2<I>R</I>,3<I>R</I>,4<I>R</I>,5<I>S</I>,6<I>R</I>)-3-acetamido-4,5-dihydroxy-6-(hydroxymethyl)oxan-2-yl]oxy-5-hydroxy-6-(hydroxymethyl)oxan-2-yl]oxy-4,5-dihydroxy-6-(hydroxymethyl)oxan-2-yl]oxy-3,5-dihydroxy-6-[[(2<I>S</I>,3<I>R</I>,4<I>S</I>,5<I>R</I>,6<I>R</I>)-3,4,5-trihydroxy-6-(hydroxymethyl)oxan-2-yl]oxymethyl]oxan-2-yl]oxy-6-[(1<I>S</I>)-2-[(3<I>S</I>,4<I>R</I>,5<I>S</I>,6<I>R</I>)-6-[(1<I>S</I>)-1,2-dihydroxyethyl]-3,4-dihydroxy-5-phosphonooxyoxan-2-yl]oxy-1-hydroxyethyl]-3,5-dihydroxyoxan-2-yl]oxy-5-[[2-aminoethoxy(hydroxy)phosphoryl]oxy-hydroxyphosphoryl]oxy-6-[(1<I>S</I>)-1,2-dihydroxyethyl]-3-hydroxyoxan-2-yl]oxy-2-carboxy-6-[(1<I>S</I>)-1,2-dihydroxyethyl]-2-[[(2<I>R</I>,3<I>S</I>,4<I>R</I>,5<I>R</I>,6<I>R</I>)-5-[[(3<I>R</I>)-3-dodecanoyloxytetradecanoyl]amino]-6-[[(2<I>R</I>,3<I>S</I>,4<I>R</I>,5<I>R</I>,6<I>R</I>)-3-hydroxy-5-[[(3<I>R</I>)-3-hydroxytetradecanoyl]amino]-4-[(3<I>R</I>)-3-hydroxytetradecanoyl]oxy-6-phosphonooxyoxan-2-yl]methoxy]-3-phosphonooxy-4-[(3<I>R</I>)-3-tetradecanoyloxytetradecanoyl]oxyoxan-2-yl]methoxy]oxan-4-yl]oxy-4-[(2<I>R</I>,4<I>R</I>,5<I>R</I>,6<I>R</I>)-4-[2-aminoethoxy(hydroxy)phosphoryl]oxy-2-carboxy-6-[(1<I>S</I>)-1,2-dihydroxyethyl]-5-hydroxyoxan-2-yl]oxy-6-[(1<I>S</I>)-1,2-dihydroxyethyl]-5-hydroxyoxane-2-carboxylic acid

> <PUBCHEM_IUPAC_NAME>
(2R,4R,5S,6R)-2-[(2R,4R,5S,6R)-5-[(3S,4R,5R,6R)-4-[(3S,4S,5R,6R)-4-[(3R,4S,5R,6R)-4-[(2R,3R,4S,5R,6R)-3-[(3R,4S,5R,6R)-4-[(2S,3R,4R,5R,6R)-3-acetamido-6-[[(2R,3R,4R,5S,6R)-3-acetamido-4,5-dihydroxy-6-(hydroxymethyl)oxan-2-yl]oxymethyl]-4-[(2R,3R,4R,5R,6R)-3-acetamido-5-hydroxy-6-(hydroxymethyl)-4-[(2S,3R,4S,5R,6R)-3,4,5-trihydroxy-6-[[(2S,3R,4S,5R,6R)-3,4,5-trihydroxy-6-(hydroxymethyl)oxan-2-yl]oxymethyl]oxan-2-yl]oxyoxan-2-yl]oxy-5-hydroxyoxan-2-yl]oxy-3-[(2R,3R,4R,5S,6R)-3-acetamido-4,5-dihydroxy-6-(hydroxymethyl)oxan-2-yl]oxy-5-hydroxy-6-(hydroxymethyl)oxan-2-yl]oxy-4,5-dihydroxy-6-(hydroxymethyl)oxan-2-yl]oxy-3,5-dihydroxy-6-[[(2S,3R,4S,5R,6R)-3,4,5-trihydroxy-6-(hydroxymethyl)oxan-2-yl]oxymethyl]oxan-2-yl]oxy-6-[(1S)-2-[(3S,4R,5S,6R)-6-[(1S)-1,2-dihydroxyethyl]-3,4-dihydroxy-5-phosphonooxyoxan-2-yl]oxy-1-hydroxyethyl]-3,5-dihydroxyoxan-2-yl]oxy-5-[[2-aminoethoxy(hydroxy)phosphoryl]oxy-hydroxyphosphoryl]oxy-6-[(1S)-1,2-dihydroxyethyl]-3-hydroxyoxan-2-yl]oxy-2-carboxy-6-[(1S)-1,2-dihydroxyethyl]-2-[[(2R,3S,4R,5R,6R)-5-[[(3R)-3-dodecanoyloxytetradecanoyl]amino]-6-[[(2R,3S,4R,5R,6R)-3-hydroxy-5-[[(3R)-3-hydroxytetradecanoyl]amino]-4-[(3R)-3-hydroxytetradecanoyl]oxy-6-phosphonooxyoxan-2-yl]methoxy]-3-phosphonooxy-4-[(3R)-3-tetradecanoyloxytetradecanoyl]oxyoxan-2-yl]methoxy]oxan-4-yl]oxy-4-[(2R,4R,5R,6R)-4-[2-aminoethoxy(hydroxy)phosphoryl]oxy-2-carboxy-6-[(1S)-1,2-dihydroxyethyl]-5-hydroxyoxan-2-yl]oxy-6-[(1S)-1,2-dihydroxyethyl]-5-hydroxyoxane-2-carboxylic acid

> <PUBCHEM_IUPAC_SYSTEMATIC_NAME>
(2R,4R,5S,6R)-2-[(2R,4R,5S,6R)-5-[(3S,4R,5R,6R)-4-[(3S,4S,5R,6R)-4-[(3R,4S,5R,6R)-4-[(2R,3R,4S,5R,6R)-3-[(3R,4S,5R,6R)-4-[(2S,3R,4R,5R,6R)-3-acetamido-6-[[(2R,3R,4R,5S,6R)-3-acetamido-6-(hydroxymethyl)-4,5-bis(oxidanyl)oxan-2-yl]oxymethyl]-4-[(2R,3R,4R,5R,6R)-3-acetamido-6-(hydroxymethyl)-4-[(2S,3R,4S,5R,6R)-6-[[(2S,3R,4S,5R,6R)-6-(hydroxymethyl)-3,4,5-tris(oxidanyl)oxan-2-yl]oxymethyl]-3,4,5-tris(oxidanyl)oxan-2-yl]oxy-5-oxidanyl-oxan-2-yl]oxy-5-oxidanyl-oxan-2-yl]oxy-3-[(2R,3R,4R,5S,6R)-3-acetamido-6-(hydroxymethyl)-4,5-bis(oxidanyl)oxan-2-yl]oxy-6-(hydroxymethyl)-5-oxidanyl-oxan-2-yl]oxy-6-(hydroxymethyl)-4,5-bis(oxidanyl)oxan-2-yl]oxy-6-[[(2S,3R,4S,5R,6R)-6-(hydroxymethyl)-3,4,5-tris(oxidanyl)oxan-2-yl]oxymethyl]-3,5-bis(oxidanyl)oxan-2-yl]oxy-6-[(1S)-2-[(3S,4R,5S,6R)-6-[(1S)-1,2-bis(oxidanyl)ethyl]-3,4-bis(oxidanyl)-5-phosphonooxy-oxan-2-yl]oxy-1-oxidanyl-ethyl]-3,5-bis(oxidanyl)oxan-2-yl]oxy-5-[[2-azanylethoxy(oxidanyl)phosphoryl]oxy-oxidanyl-phosphoryl]oxy-6-[(1S)-1,2-bis(oxidanyl)ethyl]-3-oxidanyl-oxan-2-yl]oxy-6-[(1S)-1,2-bis(oxidanyl)ethyl]-2-carboxy-2-[[(2R,3S,4R,5R,6R)-5-[[(3R)-3-dodecanoyloxytetradecanoyl]amino]-6-[[(2R,3S,4R,5R,6R)-3-oxidanyl-5-[[(3R)-3-oxidanyltetradecanoyl]amino]-4-[(3R)-3-oxidanyltetradecanoyl]oxy-6-phosphonooxy-oxan-2-yl]methoxy]-3-phosphonooxy-4-[(3R)-3-tetradecanoyloxytetradecanoyl]oxy-oxan-2-yl]methoxy]oxan-4-yl]oxy-4-[(2R,4R,5R,6R)-4-[2-azanylethoxy(oxidanyl)phosphoryl]oxy-6-[(1S)-1,2-bis(oxidanyl)ethyl]-2-carboxy-5-oxidanyl-oxan-2-yl]oxy-6-[(1S)-1,2-bis(oxidanyl)ethyl]-5-oxidanyl-oxane-2-carboxylic acid

> <PUBCHEM_IUPAC_TRADITIONAL_NAME>
(2R,4R,5S,6R)-2-[(2R,4R,5S,6R)-5-[(3S,4R,5R,6R)-4-[(3S,4S,5R,6R)-4-[(3R,4S,5R,6R)-4-[(2R,3R,4S,5R,6R)-3-[(3R,4S,5R,6R)-4-[(2S,3R,4R,5R,6R)-3-acetamido-6-[[(2R,3R,4R,5S,6R)-3-acetamido-4,5-dihydroxy-6-methylol-tetrahydropyran-2-yl]oxymethyl]-4-[(2R,3R,4R,5R,6R)-3-acetamido-5-hydroxy-6-methylol-4-[(2S,3R,4S,5R,6R)-3,4,5-trihydroxy-6-[[(2S,3R,4S,5R,6R)-3,4,5-trihydroxy-6-methylol-tetrahydropyran-2-yl]oxymethyl]tetrahydropyran-2-yl]oxy-tetrahydropyran-2-yl]oxy-5-hydroxy-tetrahydropyran-2-yl]oxy-3-[(2R,3R,4R,5S,6R)-3-acetamido-4,5-dihydroxy-6-methylol-tetrahydropyran-2-yl]oxy-5-hydroxy-6-methylol-tetrahydropyran-2-yl]oxy-4,5-dihydroxy-6-methylol-tetrahydropyran-2-yl]oxy-3,5-dihydroxy-6-[[(2S,3R,4S,5R,6R)-3,4,5-trihydroxy-6-methylol-tetrahydropyran-2-yl]oxymethyl]tetrahydropyran-2-yl]oxy-6-[(1S)-2-[(3S,4R,5S,6R)-6-[(1S)-1,2-dihydroxyethyl]-3,4-dihydroxy-5-phosphonooxy-tetrahydropyran-2-yl]oxy-1-hydroxy-ethyl]-3,5-dihydroxy-tetrahydropyran-2-yl]oxy-5-[[2-aminoethoxy(hydroxy)phosphoryl]oxy-hydroxy-phosphoryl]oxy-6-[(1S)-1,2-dihydroxyethyl]-3-hydroxy-tetrahydropyran-2-yl]oxy-2-carboxy-6-[(1S)-1,2-dihydroxyethyl]-2-[[(2R,3S,4R,5R,6R)-6-[[(2R,3S,4R,5R,6R)-3-hydroxy-5-[[(3R)-3-hydroxytetradecanoyl]amino]-4-[(3R)-3-hydroxytetradecanoyl]oxy-6-phosphonooxy-tetrahydropyran-2-yl]methoxy]-5-[[(3R)-3-lauroyloxytetradecanoyl]amino]-3-phosphonooxy-4-[(3R)-3-tetradecanoyloxytetradecanoyl]oxy-tetrahydropyran-2-yl]methoxy]tetrahydropyran-4-yl]oxy-4-[(2R,4R,5R,6R)-4-[2-aminoethoxy(hydroxy)phosphoryl]oxy-2-carboxy-6-[(1S)-1,2-dihydroxyethyl]-5-hydroxy-tetrahydropyran-2-yl]oxy-6-[(1S)-1,2-dihydroxyethyl]-5-hydroxy-tetrahydropyran-2-carboxylic acid

> <PUBCHEM_IUPAC_INCHI>
InChI=1S/C211H376N8O126P6/c1-11-17-23-29-35-41-42-48-54-60-66-72-134(247)308-109(70-64-58-52-46-39-33-27-21-15-5)80-136(249)322-182-142(219-132(245)79-108(69-63-57-51-45-38-32-26-20-14-4)307-133(246)71-65-59-53-47-40-34-28-22-16-6)192(301-99-128-153(260)179(321-135(248)78-107(237)68-62-56-50-44-37-31-25-19-13-3)141(196(317-128)344-348(290,291)292)218-131(244)77-106(236)67-61-55-49-43-36-30-24-18-12-2)320-130(178(182)341-346(284,285)286)101-304-209(206(278)279)83-118(336-210(207(280)281)81-116(149(256)172(337-210)110(238)84-220)335-211(208(282)283)82-117(340-349(293,294)305-75-73-212)150(257)173(338-211)111(239)85-221)177(176(339-209)114(242)88-224)326-203-170(277)186(189(175(325-203)113(241)87-223)343-351(297,298)345-350(295,296)306-76-74-213)332-202-169(276)184(167(274)171(323-202)115(243)96-299-199-166(273)162(269)187(342-347(287,288)289)174(324-199)112(240)86-222)329-201-168(275)183(155(262)129(319-201)100-303-198-164(271)159(266)146(253)122(92-228)313-198)330-204-188(161(268)147(254)123(93-229)314-204)333-205-190(334-193-138(215-103(8)233)157(264)144(251)120(90-226)310-193)185(152(259)125(95-231)315-205)331-195-140(217-105(10)235)181(154(261)127(316-195)98-300-191-137(214-102(7)232)156(263)143(250)119(89-225)309-191)327-194-139(216-104(9)234)180(151(258)124(94-230)311-194)328-200-165(272)160(267)148(255)126(318-200)97-302-197-163(270)158(265)145(252)121(91-227)312-197/h106-130,137-205,220-231,236-243,250-277H,11-101,212-213H2,1-10H3,(H,214,232)(H,215,233)(H,216,234)(H,217,235)(H,218,244)(H,219,245)(H,278,279)(H,280,281)(H,282,283)(H,293,294)(H,295,296)(H,297,298)(H2,284,285,286)(H2,287,288,289)(H2,290,291,292)/t106-,107-,108-,109-,110+,111+,112+,113+,114+,115+,116-,117-,118-,119-,120-,121-,122-,123-,124-,125-,126-,127-,128-,129-,130-,137-,138-,139-,140-,141-,142-,143-,144-,145+,146+,147+,148+,149+,150+,151+,152-,153-,154+,155-,156-,157-,158+,159+,160+,161+,162-,163-,164-,165-,166+,167-,168-,169+,170+,171-,172-,173-,174-,175-,176-,177+,178-,179-,180-,181-,182-,183+,184+,185+,186-,187+,188-,189-,190-,191-,192-,193+,194+,195+,196-,197+,198+,199?,200-,201?,202?,203?,204-,205?,209-,210-,211-/m1/s1

> <PUBCHEM_IUPAC_INCHIKEY>
BFVQTKQTUCQRPI-YYEZTRBPSA-N

> <PUBCHEM_XLOGP3_AA>
-14.8

> <PUBCHEM_EXACT_MASS>
5226.1753277

> <PUBCHEM_MOLECULAR_FORMULA>
C211H376N8O126P6

> <PUBCHEM_MOLECULAR_WEIGHT>
5227

> <PUBCHEM_SMILES>
CCCCCCCCCCCCCC(=O)O[C@H](CCCCCCCCCCC)CC(=O)O[C@@H]1[C@H]([C@@H](O[C@@H]([C@H]1OP(=O)(O)O)CO[C@@]2(C[C@H]([C@@H]([C@H](O2)[C@H](CO)O)OC3[C@H]([C@H]([C@@H]([C@H](O3)[C@H](CO)O)OP(=O)(O)OP(=O)(O)OCCN)OC4[C@H]([C@H]([C@@H]([C@H](O4)[C@H](COC5[C@H]([C@H]([C@@H]([C@H](O5)[C@H](CO)O)OP(=O)(O)O)O)O)O)O)OC6[C@@H]([C@H]([C@@H]([C@H](O6)CO[C@@H]7[C@@H]([C@H]([C@H]([C@H](O7)CO)O)O)O)O)O[C@@H]8[C@@H]([C@H]([C@H]([C@H](O8)CO)O)O)OC9[C@@H]([C@H]([C@@H]([C@H](O9)CO)O)O[C@H]1[C@@H]([C@H]([C@H]([C@H](O1)CO[C@H]1[C@@H]([C@H]([C@@H]([C@H](O1)CO)O)O)NC(=O)C)O)O[C@H]1[C@@H]([C@H]([C@H]([C@H](O1)CO)O)O[C@@H]1[C@@H]([C@H]([C@H]([C@H](O1)CO[C@@H]1[C@@H]([C@H]([C@H]([C@H](O1)CO)O)O)O)O)O)O)NC(=O)C)NC(=O)C)O[C@H]1[C@@H]([C@H]([C@@H]([C@H](O1)CO)O)O)NC(=O)C)O)O)O)O[C@@]1(C[C@H]([C@@H]([C@H](O1)[C@H](CO)O)O)O[C@@]1(C[C@H]([C@@H]([C@H](O1)[C@H](CO)O)O)OP(=O)(O)OCCN)C(=O)O)C(=O)O)C(=O)O)OC[C@@H]1[C@H]([C@@H]([C@H]([C@H](O1)OP(=O)(O)O)NC(=O)C[C@@H](CCCCCCCCCCC)O)OC(=O)C[C@@H](CCCCCCCCCCC)O)O)NC(=O)C[C@@H](CCCCCCCCCCC)OC(=O)CCCCCCCCCCC

> <PUBCHEM_CONNECTIVITY_SMILES>
CCCCCCCCCCCCCC(=O)OC(CCCCCCCCCCC)CC(=O)OC1C(C(OC(C1OP(=O)(O)O)COC2(CC(C(C(O2)C(CO)O)OC3C(C(C(C(O3)C(CO)O)OP(=O)(O)OP(=O)(O)OCCN)OC4C(C(C(C(O4)C(COC5C(C(C(C(O5)C(CO)O)OP(=O)(O)O)O)O)O)O)OC6C(C(C(C(O6)COC7C(C(C(C(O7)CO)O)O)O)O)OC8C(C(C(C(O8)CO)O)O)OC9C(C(C(C(O9)CO)O)OC1C(C(C(C(O1)COC1C(C(C(C(O1)CO)O)O)NC(=O)C)O)OC1C(C(C(C(O1)CO)O)OC1C(C(C(C(O1)COC1C(C(C(C(O1)CO)O)O)O)O)O)O)NC(=O)C)NC(=O)C)OC1C(C(C(C(O1)CO)O)O)NC(=O)C)O)O)O)OC1(CC(C(C(O1)C(CO)O)O)OC1(CC(C(C(O1)C(CO)O)O)OP(=O)(O)OCCN)C(=O)O)C(=O)O)C(=O)O)OCC1C(C(C(C(O1)OP(=O)(O)O)NC(=O)CC(CCCCCCCCCCC)O)OC(=O)CC(CCCCCCCCCCC)O)O)NC(=O)CC(CCCCCCCCCCC)OC(=O)CCCCCCCCCCC

> <PUBCHEM_CACTVS_TPSA>
2100

> <PUBCHEM_MONOISOTOPIC_WEIGHT>
5224.1686180

> <PUBCHEM_TOTAL_CHARGE>
0

> <PUBCHEM_HEAVY_ATOM_COUNT>
351

> <PUBCHEM_ATOM_DEF_STEREO_COUNT>
92

> <PUBCHEM_ATOM_UDEF_STEREO_COUNT>
5

> <PUBCHEM_BOND_DEF_STEREO_COUNT>
0

> <PUBCHEM_BOND_UDEF_STEREO_COUNT>
0

> <PUBCHEM_ISOTOPIC_ATOM_COUNT>
0

> <PUBCHEM_COMPONENT_COUNT>
1

> <PUBCHEM_CACTVS_TAUTO_COUNT>
-1

> <PUBCHEM_COORDINATE_TYPE>
1
5
255

> <PUBCHEM_BONDANNOTATIONS>
246  101  6
249  102  6
252  106  6
257  109  5
259  112  6
269  116  5
147  12  6
158  12  3
272  120  6
275  123  6
284  128  5
151  13  6
162  13  6
288  130  6
171  133  5
195  134  6
198  135  5
206  136  6
226  137  5
244  138  5
146  14  5
143  354  5
153  364  5
155  366  5
157  16  6
168  16  3
161  372  5
150  17  5
176  180  5
149  18  6
184  394  6
164  19  5
179  19  6
190  210  5
191  214  5
192  212  6
201  217  5
173  21  3
174  21  6
211  221  6
216  230  5
167  22  5
183  22  6
225  223  6
154  23  5
234  254  6
237  482  6
243  258  6
250  260  6
165  27  6
204  27  5
276  286  6
156  28  6
170  29  6
197  29  6
159  31  6
160  33  5
163  34  6
166  35  5
182  37  5
169  38  6
189  41  6
178  42  6
181  44  6
186  46  6
187  47  5
194  48  5
188  49  6
202  50  6
219  50  5
199  51  5
193  54  5
220  55  3
222  56  6
196  57  5
227  58  5
205  61  6
208  64  6
213  68  5
142  7  6
145  7  5
215  71  6
141  8  5
148  8  3
224  80  5
229  81  5
238  82  6
231  85  6
232  86  5
241  87  6
233  88  5
235  89  6
236  90  6
239  94  5
242  96  5
247  98  5
266  99  5

$$$$
